
     RDKit          3D

 50 52  0  0  0  0  0  0  0  0999 V2000
   90.4900  109.1900   86.1320 O   0  0  0  0  0  0  0  0  0  0  0  0
   89.8970  109.0880   85.0270 C   0  0  0  0  0  0  0  0  0  0  0  0
   88.4710  109.3960   84.8930 C   0  0  0  0  0  0  0  0  0  0  0  0
   88.1800  110.7900   84.3840 C   0  0  0  0  0  0  0  0  0  0  0  0
   87.8880  110.7080   82.9250 C   0  0  0  0  0  0  0  0  0  0  0  0
   88.0900  111.9760   82.2380 N   0  0  0  0  0  4  0  0  0  0  0  0
   89.4740  112.2620   82.0120 C   0  0  0  0  0  0  0  0  0  0  0  0
   90.1280  111.1990   81.1720 C   0  0  0  0  0  0  0  0  0  0  0  0
   89.4390  111.1280   79.8420 C   0  0  0  0  0  0  0  0  0  0  0  0
   90.3070  111.7600   78.9200 O   0  0  0  0  0  0  0  0  0  0  0  0
   89.3510  109.7080   79.3470 C   0  0  0  0  0  0  0  0  0  0  0  0
   90.3110  109.1600   78.5210 C   0  0  0  0  0  0  0  0  0  0  0  0
   90.2680  107.8690   78.0460 C   0  0  0  0  0  0  0  0  0  0  0  0
   89.2250  107.0710   78.4020 C   0  0  0  0  0  0  0  0  0  0  0  0
   89.1520  105.4280   77.8120 Cl  0  0  0  0  0  0  0  0  0  0  0  0
   88.2480  107.5700   79.2200 C   0  0  0  0  0  0  0  0  0  0  0  0
   88.3120  108.8690   79.6850 C   0  0  0  0  0  0  0  0  0  0  0  0
   88.1390  111.8400   79.7710 C   0  0  0  0  0  0  0  0  0  0  0  0
   87.3630  111.9900   81.0100 C   0  0  0  0  0  0  0  0  0  0  0  0
   90.7200  108.6400   83.8840 C   0  0  0  0  0  0  0  0  0  0  0  0
   90.1680  107.8630   82.8820 C   0  0  0  0  0  0  0  0  0  0  0  0
   90.9400  107.4500   81.8230 C   0  0  0  0  0  0  0  0  0  0  0  0
   92.2620  107.8070   81.7530 C   0  0  0  0  0  0  0  0  0  0  0  0
   93.0700  107.4160   80.7170 F   0  0  0  0  0  0  0  0  0  0  0  0
   92.8200  108.5760   82.7380 C   0  0  0  0  0  0  0  0  0  0  0  0
   92.0450  108.9830   83.7910 C   0  0  0  0  0  0  0  0  0  0  0  0
   88.0271  108.6738   84.1921 H   0  0  0  0  0  0  0  0  0  0  0  0
   88.0392  109.3331   85.9027 H   0  0  0  0  0  0  0  0  0  0  0  0
   87.3099  111.2047   84.9140 H   0  0  0  0  0  0  0  0  0  0  0  0
   89.0467  111.4443   84.5592 H   0  0  0  0  0  0  0  0  0  0  0  0
   88.5517  109.9548   82.4753 H   0  0  0  0  0  0  0  0  0  0  0  0
   86.8281  110.4356   82.8137 H   0  0  0  0  0  0  0  0  0  0  0  0
   87.7400  112.7100   82.9230 H   0  0  0  0  0  0  0  0  0  0  0  0
   89.5590  113.2289   81.4944 H   0  0  0  0  0  0  0  0  0  0  0  0
   89.9831  112.2927   82.9866 H   0  0  0  0  0  0  0  0  0  0  0  0
   91.1891  111.4483   81.0238 H   0  0  0  0  0  0  0  0  0  0  0  0
   90.0507  110.2267   81.6805 H   0  0  0  0  0  0  0  0  0  0  0  0
   89.7380  112.1080   78.1880 H   0  0  0  0  0  0  0  0  0  0  0  0
   91.1609  109.7924   78.2247 H   0  0  0  0  0  0  0  0  0  0  0  0
   91.0640  107.4884   77.3891 H   0  0  0  0  0  0  0  0  0  0  0  0
   87.4022  106.9294   79.5105 H   0  0  0  0  0  0  0  0  0  0  0  0
   87.5130  109.2431   80.3419 H   0  0  0  0  0  0  0  0  0  0  0  0
   88.3410  112.8511   79.3877 H   0  0  0  0  0  0  0  0  0  0  0  0
   87.5121  111.2015   79.1313 H   0  0  0  0  0  0  0  0  0  0  0  0
   86.8286  112.9497   80.9522 H   0  0  0  0  0  0  0  0  0  0  0  0
   86.7176  111.1002   81.0511 H   0  0  0  0  0  0  0  0  0  0  0  0
   89.1077  107.5747   82.9329 H   0  0  0  0  0  0  0  0  0  0  0  0
   90.4962  106.8312   81.0292 H   0  0  0  0  0  0  0  0  0  0  0  0
   93.8802  108.8642   82.6844 H   0  0  0  0  0  0  0  0  0  0  0  0
   92.4961  109.6003   84.5819 H   0  0  0  0  0  0  0  0  0  0  0  0
  1  2  2  0
  2  3  1  0
  3  4  1  0
  4  5  1  0
  5  6  1  0
  6  7  1  0
  7  8  1  0
  8  9  1  0
  9 10  1  0
  9 11  1  0
 11 12  2  0
 12 13  1  0
 13 14  2  0
 14 15  1  0
 14 16  1  0
 16 17  2  0
  9 18  1  0
 18 19  1  0
  2 20  1  0
 20 21  2  0
 21 22  1  0
 22 23  2  0
 23 24  1  0
 23 25  1  0
 25 26  2  0
 19  6  1  0
 26 20  1  0
 17 11  1  0
  3 27  1  0
  3 28  1  0
  4 29  1  0
  4 30  1  0
  5 31  1  0
  5 32  1  0
  6 33  1  0
  7 34  1  0
  7 35  1  0
  8 36  1  0
  8 37  1  0
 10 38  1  0
 12 39  1  0
 13 40  1  0
 16 41  1  0
 17 42  1  0
 18 43  1  0
 18 44  1  0
 19 45  1  0
 19 46  1  0
 21 47  1  0
 22 48  1  0
 25 49  1  0
 26 50  1  0
M  CHG  1   6   1
M  END
>  <meeko>  (1) 
{"is_sidechain": false}

$$$$
