
     RDKit          3D

 50 52  0  0  0  0  0  0  0  0999 V2000
  112.3940  109.9650  147.8290 O   0  0  0  0  0  0  0  0  0  0  0  0
  111.7020  110.9060  148.2960 C   0  0  0  0  0  0  0  0  0  0  0  0
  110.9210  110.7440  149.5240 C   0  0  0  0  0  0  0  0  0  0  0  0
  110.8260  109.3180  150.0190 C   0  0  0  0  0  0  0  0  0  0  0  0
  110.2930  109.3360  151.4110 C   0  0  0  0  0  0  0  0  0  0  0  0
  111.3440  109.4400  152.4150 N   0  0  0  0  0  4  0  0  0  0  0  0
  110.8410  109.3090  153.7480 C   0  0  0  0  0  0  0  0  0  0  0  0
  110.1650  107.9820  153.9570 C   0  0  0  0  0  0  0  0  0  0  0  0
  111.1540  106.8810  153.7170 C   0  0  0  0  0  0  0  0  0  0  0  0
  111.5130  106.3940  154.9970 O   0  0  0  0  0  0  0  0  0  0  0  0
  110.5060  105.6990  153.0450 C   0  0  0  0  0  0  0  0  0  0  0  0
  109.3670  105.8270  152.2770 C   0  0  0  0  0  0  0  0  0  0  0  0
  108.7440  104.7740  151.6480 C   0  0  0  0  0  0  0  0  0  0  0  0
  109.2680  103.5250  151.7790 C   0  0  0  0  0  0  0  0  0  0  0  0
  108.4930  102.1740  150.9870 Cl  0  0  0  0  0  0  0  0  0  0  0  0
  110.3970  103.3470  152.5320 C   0  0  0  0  0  0  0  0  0  0  0  0
  111.0050  104.4200  153.1540 C   0  0  0  0  0  0  0  0  0  0  0  0
  112.4100  107.3020  153.0470 C   0  0  0  0  0  0  0  0  0  0  0  0
  112.3630  108.4730  152.1600 C   0  0  0  0  0  0  0  0  0  0  0  0
  111.7260  112.1720  147.5340 C   0  0  0  0  0  0  0  0  0  0  0  0
  112.9000  112.8910  147.4030 C   0  0  0  0  0  0  0  0  0  0  0  0
  112.9150  114.0680  146.6930 C   0  0  0  0  0  0  0  0  0  0  0  0
  111.7650  114.5350  146.1090 C   0  0  0  0  0  0  0  0  0  0  0  0
  111.7330  115.7040  145.3940 F   0  0  0  0  0  0  0  0  0  0  0  0
  110.5970  113.8320  146.2320 C   0  0  0  0  0  0  0  0  0  0  0  0
  110.5900  112.6610  146.9410 C   0  0  0  0  0  0  0  0  0  0  0  0
  111.3891  111.3516  150.3124 H   0  0  0  0  0  0  0  0  0  0  0  0
  109.8953  111.0643  149.2889 H   0  0  0  0  0  0  0  0  0  0  0  0
  110.1487  108.7440  149.3696 H   0  0  0  0  0  0  0  0  0  0  0  0
  111.8192  108.8456  150.0014 H   0  0  0  0  0  0  0  0  0  0  0  0
  109.6177  110.1977  151.5180 H   0  0  0  0  0  0  0  0  0  0  0  0
  109.7677  108.3840  151.5777 H   0  0  0  0  0  0  0  0  0  0  0  0
  111.7020  110.4370  152.3250 H   0  0  0  0  0  0  0  0  0  0  0  0
  111.6783  109.3985  154.4558 H   0  0  0  0  0  0  0  0  0  0  0  0
  110.0986  110.1033  153.9151 H   0  0  0  0  0  0  0  0  0  0  0  0
  109.7883  107.9196  154.9886 H   0  0  0  0  0  0  0  0  0  0  0  0
  109.3234  107.8818  153.2558 H   0  0  0  0  0  0  0  0  0  0  0  0
  111.6920  107.1880  155.5610 H   0  0  0  0  0  0  0  0  0  0  0  0
  108.9313  106.8303  152.1607 H   0  0  0  0  0  0  0  0  0  0  0  0
  107.8366  104.9391  151.0486 H   0  0  0  0  0  0  0  0  0  0  0  0
  110.8244  102.3395  152.6429 H   0  0  0  0  0  0  0  0  0  0  0  0
  111.9119  104.2484  153.7524 H   0  0  0  0  0  0  0  0  0  0  0  0
  113.1442  107.5198  153.8367 H   0  0  0  0  0  0  0  0  0  0  0  0
  112.6584  106.4634  152.3799 H   0  0  0  0  0  0  0  0  0  0  0  0
  113.3332  108.9857  152.2360 H   0  0  0  0  0  0  0  0  0  0  0  0
  112.1288  108.0676  151.1646 H   0  0  0  0  0  0  0  0  0  0  0  0
  113.8249  112.5198  147.8685 H   0  0  0  0  0  0  0  0  0  0  0  0
  113.8513  114.6366  146.5929 H   0  0  0  0  0  0  0  0  0  0  0  0
  109.6730  114.2044  145.7657 H   0  0  0  0  0  0  0  0  0  0  0  0
  109.6498  112.0982  147.0375 H   0  0  0  0  0  0  0  0  0  0  0  0
  1  2  2  0
  2  3  1  0
  3  4  1  0
  4  5  1  0
  5  6  1  0
  6  7  1  0
  7  8  1  0
  8  9  1  0
  9 10  1  0
  9 11  1  0
 11 12  2  0
 12 13  1  0
 13 14  2  0
 14 15  1  0
 14 16  1  0
 16 17  2  0
  9 18  1  0
 18 19  1  0
  2 20  1  0
 20 21  2  0
 21 22  1  0
 22 23  2  0
 23 24  1  0
 23 25  1  0
 25 26  2  0
 19  6  1  0
 26 20  1  0
 17 11  1  0
  3 27  1  0
  3 28  1  0
  4 29  1  0
  4 30  1  0
  5 31  1  0
  5 32  1  0
  6 33  1  0
  7 34  1  0
  7 35  1  0
  8 36  1  0
  8 37  1  0
 10 38  1  0
 12 39  1  0
 13 40  1  0
 16 41  1  0
 17 42  1  0
 18 43  1  0
 18 44  1  0
 19 45  1  0
 19 46  1  0
 21 47  1  0
 22 48  1  0
 25 49  1  0
 26 50  1  0
M  CHG  1   6   1
M  END
>  <meeko>  (1) 
{"is_sidechain": false}

$$$$
