
     RDKit          3D

 50 52  0  0  0  0  0  0  0  0999 V2000
  114.5650   99.1850  117.7570 O   0  0  0  0  0  0  0  0  0  0  0  0
  113.5960   98.7710  117.0690 C   0  0  0  0  0  0  0  0  0  0  0  0
  113.7790   98.3090  115.6910 C   0  0  0  0  0  0  0  0  0  0  0  0
  114.1970   99.3910  114.7210 C   0  0  0  0  0  0  0  0  0  0  0  0
  114.1160   98.8420  113.3390 C   0  0  0  0  0  0  0  0  0  0  0  0
  113.2570   99.6340  112.4670 N   0  0  0  0  0  4  0  0  0  0  0  0
  113.8890  100.8390  112.0240 C   0  0  0  0  0  0  0  0  0  0  0  0
  115.1490  100.5500  111.2530 C   0  0  0  0  0  0  0  0  0  0  0  0
  114.8120   99.7240  110.0480 C   0  0  0  0  0  0  0  0  0  0  0  0
  114.8700  100.6070  108.9430 O   0  0  0  0  0  0  0  0  0  0  0  0
  115.8870   98.7090  109.7620 C   0  0  0  0  0  0  0  0  0  0  0  0
  116.0710   98.1720  108.5050 C   0  0  0  0  0  0  0  0  0  0  0  0
  117.0400   97.2430  108.2020 C   0  0  0  0  0  0  0  0  0  0  0  0
  117.8760   96.8180  109.1870 C   0  0  0  0  0  0  0  0  0  0  0  0
  119.1140   95.6410  108.8240 Cl  0  0  0  0  0  0  0  0  0  0  0  0
  117.7330   97.3220  110.4520 C   0  0  0  0  0  0  0  0  0  0  0  0
  116.7530   98.2540  110.7320 C   0  0  0  0  0  0  0  0  0  0  0  0
  113.4520   99.1290  110.0560 C   0  0  0  0  0  0  0  0  0  0  0  0
  112.8270   98.8480  111.3570 C   0  0  0  0  0  0  0  0  0  0  0  0
  112.2750   98.7820  117.7320 C   0  0  0  0  0  0  0  0  0  0  0  0
  111.3510   97.7850  117.4730 C   0  0  0  0  0  0  0  0  0  0  0  0
  110.1250   97.8010  118.0930 C   0  0  0  0  0  0  0  0  0  0  0  0
  109.8100   98.8060  118.9720 C   0  0  0  0  0  0  0  0  0  0  0  0
  108.5990   98.8640  119.6110 F   0  0  0  0  0  0  0  0  0  0  0  0
  110.7160   99.7970  119.2360 C   0  0  0  0  0  0  0  0  0  0  0  0
  111.9360   99.7750  118.6150 C   0  0  0  0  0  0  0  0  0  0  0  0
  114.5533   97.5277  115.6898 H   0  0  0  0  0  0  0  0  0  0  0  0
  112.7998   97.9419  115.3498 H   0  0  0  0  0  0  0  0  0  0  0  0
  113.5241  100.2558  114.8170 H   0  0  0  0  0  0  0  0  0  0  0  0
  115.2252   99.7160  114.9383 H   0  0  0  0  0  0  0  0  0  0  0  0
  115.1284   98.8199  112.9095 H   0  0  0  0  0  0  0  0  0  0  0  0
  113.6803   97.8343  113.4075 H   0  0  0  0  0  0  0  0  0  0  0  0
  112.4470   99.9320  113.0890 H   0  0  0  0  0  0  0  0  0  0  0  0
  113.1921  101.3907  111.3760 H   0  0  0  0  0  0  0  0  0  0  0  0
  114.1553  101.4346  112.9096 H   0  0  0  0  0  0  0  0  0  0  0  0
  115.6096  101.4963  110.9331 H   0  0  0  0  0  0  0  0  0  0  0  0
  115.8550   99.9996  111.8922 H   0  0  0  0  0  0  0  0  0  0  0  0
  114.6330  101.5050  109.2850 H   0  0  0  0  0  0  0  0  0  0  0  0
  115.4037   98.5061  107.6968 H   0  0  0  0  0  0  0  0  0  0  0  0
  117.1369   96.8503  107.1791 H   0  0  0  0  0  0  0  0  0  0  0  0
  118.4053   96.9812  111.2532 H   0  0  0  0  0  0  0  0  0  0  0  0
  116.6615   98.6433  111.7567 H   0  0  0  0  0  0  0  0  0  0  0  0
  112.7889   99.8224  109.5180 H   0  0  0  0  0  0  0  0  0  0  0  0
  113.5837   98.1386  109.5959 H   0  0  0  0  0  0  0  0  0  0  0  0
  111.7433   98.9992  111.2437 H   0  0  0  0  0  0  0  0  0  0  0  0
  113.1296   97.8192  111.6022 H   0  0  0  0  0  0  0  0  0  0  0  0
  111.5988   96.9773  116.7686 H   0  0  0  0  0  0  0  0  0  0  0  0
  109.3942   97.0059  117.8840 H   0  0  0  0  0  0  0  0  0  0  0  0
  110.4664  100.6039  119.9407 H   0  0  0  0  0  0  0  0  0  0  0  0
  112.6619  100.5732  118.8295 H   0  0  0  0  0  0  0  0  0  0  0  0
  1  2  2  0
  2  3  1  0
  3  4  1  0
  4  5  1  0
  5  6  1  0
  6  7  1  0
  7  8  1  0
  8  9  1  0
  9 10  1  0
  9 11  1  0
 11 12  2  0
 12 13  1  0
 13 14  2  0
 14 15  1  0
 14 16  1  0
 16 17  2  0
  9 18  1  0
 18 19  1  0
  2 20  1  0
 20 21  2  0
 21 22  1  0
 22 23  2  0
 23 24  1  0
 23 25  1  0
 25 26  2  0
 19  6  1  0
 26 20  1  0
 17 11  1  0
  3 27  1  0
  3 28  1  0
  4 29  1  0
  4 30  1  0
  5 31  1  0
  5 32  1  0
  6 33  1  0
  7 34  1  0
  7 35  1  0
  8 36  1  0
  8 37  1  0
 10 38  1  0
 12 39  1  0
 13 40  1  0
 16 41  1  0
 17 42  1  0
 18 43  1  0
 18 44  1  0
 19 45  1  0
 19 46  1  0
 21 47  1  0
 22 48  1  0
 25 49  1  0
 26 50  1  0
M  CHG  1   6   1
M  END
>  <meeko>  (1) 
{"is_sidechain": false}

$$$$
