
     RDKit          3D

 67 71  0  0  0  0  0  0  0  0999 V2000
  149.3360  151.8050  120.5950 O   0  0  0  0  0  0  0  0  0  0  0  0
  149.3240  152.9250  120.0430 C   0  0  0  0  0  0  0  0  0  0  0  0
  148.4890  153.9890  120.4280 N   0  0  0  0  0  0  0  0  0  0  0  0
  149.0840  155.1750  119.8980 C   0  0  0  0  0  0  0  0  0  0  0  0
  149.7600  154.7180  118.6740 N   0  0  0  0  0  0  0  0  0  0  0  0
  149.8890  155.5690  117.5470 C   0  0  0  0  0  0  0  0  0  0  0  0
  151.1260  155.9190  117.0600 C   0  0  0  0  0  0  0  0  0  0  0  0
  151.2650  156.7400  115.9370 C   0  0  0  0  0  0  0  0  0  0  0  0
  150.1150  157.1920  115.3250 C   0  0  0  0  0  0  0  0  0  0  0  0
  148.8870  156.8370  115.8200 C   0  0  0  0  0  0  0  0  0  0  0  0
  148.7730  156.0320  116.9190 C   0  0  0  0  0  0  0  0  0  0  0  0
  150.1910  153.3370  118.8760 C   0  0  0  0  0  0  0  0  0  0  0  0
  149.8610  152.4530  117.6900 C   0  0  0  0  0  0  0  0  0  0  0  0
  150.2730  151.0210  117.9400 C   0  0  0  0  0  0  0  0  0  0  0  0
  151.6130  150.9240  118.4810 N   0  0  0  0  0  4  0  0  0  0  0  0
  152.3700  149.8270  117.8890 C   0  0  0  0  0  0  0  0  0  0  0  0
  153.8420  150.0780  118.0330 C   0  0  0  0  0  0  0  0  0  0  0  0
  154.5770  149.2280  118.9760 C   0  0  0  0  0  0  0  0  0  0  0  0
  155.0870  149.7190  120.2490 C   0  0  0  0  0  0  0  0  0  0  0  0
  154.0430  150.0800  121.2740 C   0  0  0  0  0  0  0  0  0  0  0  0
  153.1040  149.1150  121.5640 C   0  0  0  0  0  0  0  0  0  0  0  0
  152.1060  149.3750  122.4690 C   0  0  0  0  0  0  0  0  0  0  0  0
  152.0330  150.5990  123.0950 C   0  0  0  0  0  0  0  0  0  0  0  0
  151.0410  150.8450  123.9880 F   0  0  0  0  0  0  0  0  0  0  0  0
  152.9990  151.5620  122.7810 C   0  0  0  0  0  0  0  0  0  0  0  0
  153.9960  151.3070  121.8790 C   0  0  0  0  0  0  0  0  0  0  0  0
  156.2330  149.0900  120.8840 C   0  0  0  0  0  0  0  0  0  0  0  0
  157.3040  149.7230  121.4510 C   0  0  0  0  0  0  0  0  0  0  0  0
  158.3330  148.9500  122.0030 C   0  0  0  0  0  0  0  0  0  0  0  0
  158.2860  147.5780  121.9870 C   0  0  0  0  0  0  0  0  0  0  0  0
  159.2710  146.8040  122.5170 F   0  0  0  0  0  0  0  0  0  0  0  0
  157.2130  146.9290  121.4210 C   0  0  0  0  0  0  0  0  0  0  0  0
  156.2230  147.6890  120.8880 C   0  0  0  0  0  0  0  0  0  0  0  0
  152.3050  152.1850  118.4500 C   0  0  0  0  0  0  0  0  0  0  0  0
  151.6110  153.2010  119.2970 C   0  0  0  0  0  0  0  0  0  0  0  0
  147.6040  153.9010  120.9960 H   0  0  0  0  0  0  0  0  0  0  0  0
  148.3158  155.9264  119.6630 H   0  0  0  0  0  0  0  0  0  0  0  0
  149.7731  155.6563  120.6076 H   0  0  0  0  0  0  0  0  0  0  0  0
  152.0279  155.5442  117.5660 H   0  0  0  0  0  0  0  0  0  0  0  0
  152.2586  157.0162  115.5544 H   0  0  0  0  0  0  0  0  0  0  0  0
  150.1832  157.8387  114.4378 H   0  0  0  0  0  0  0  0  0  0  0  0
  147.9772  157.2064  115.3242 H   0  0  0  0  0  0  0  0  0  0  0  0
  147.7771  155.7575  117.2970 H   0  0  0  0  0  0  0  0  0  0  0  0
  148.7766  152.4872  117.5086 H   0  0  0  0  0  0  0  0  0  0  0  0
  150.4144  152.8254  116.8153 H   0  0  0  0  0  0  0  0  0  0  0  0
  149.5690  150.5693  118.6544 H   0  0  0  0  0  0  0  0  0  0  0  0
  150.2590  150.4922  116.9756 H   0  0  0  0  0  0  0  0  0  0  0  0
  151.5140  150.6520  119.4830 H   0  0  0  0  0  0  0  0  0  0  0  0
  152.1096  148.8883  118.3998 H   0  0  0  0  0  0  0  0  0  0  0  0
  152.1207  149.7539  116.8201 H   0  0  0  0  0  0  0  0  0  0  0  0
  154.2992  149.9447  117.0414 H   0  0  0  0  0  0  0  0  0  0  0  0
  153.9176  151.0939  118.4480 H   0  0  0  0  0  0  0  0  0  0  0  0
  153.9044  148.3925  119.2199 H   0  0  0  0  0  0  0  0  0  0  0  0
  155.5082  149.0363  118.4228 H   0  0  0  0  0  0  0  0  0  0  0  0
  155.5267  150.6355  119.8287 H   0  0  0  0  0  0  0  0  0  0  0  0
  153.1543  148.1339  121.0691 H   0  0  0  0  0  0  0  0  0  0  0  0
  151.3590  148.6001  122.6959 H   0  0  0  0  0  0  0  0  0  0  0  0
  152.9557  152.5462  123.2704 H   0  0  0  0  0  0  0  0  0  0  0  0
  154.7473  152.0754  121.6440 H   0  0  0  0  0  0  0  0  0  0  0  0
  157.3566  150.8215  121.4732 H   0  0  0  0  0  0  0  0  0  0  0  0
  159.1981  149.4532  122.4595 H   0  0  0  0  0  0  0  0  0  0  0  0
  157.1593  145.8305  121.4011 H   0  0  0  0  0  0  0  0  0  0  0  0
  155.3632  147.1755  120.4329 H   0  0  0  0  0  0  0  0  0  0  0  0
  153.3286  152.0423  118.8266 H   0  0  0  0  0  0  0  0  0  0  0  0
  152.3217  152.5486  117.4120 H   0  0  0  0  0  0  0  0  0  0  0  0
  151.6491  152.8838  120.3496 H   0  0  0  0  0  0  0  0  0  0  0  0
  152.1150  154.1716  119.1788 H   0  0  0  0  0  0  0  0  0  0  0  0
  1  2  2  0
  2  3  1  0
  3  4  1  0
  4  5  1  0
  5  6  1  0
  6  7  2  0
  7  8  1  0
  8  9  2  0
  9 10  1  0
 10 11  2  0
  5 12  1  0
 12 13  1  0
 13 14  1  0
 14 15  1  0
 15 16  1  0
 16 17  1  0
 17 18  1  0
 18 19  1  0
 19 20  1  0
 20 21  2  0
 21 22  1  0
 22 23  2  0
 23 24  1  0
 23 25  1  0
 25 26  2  0
 19 27  1  0
 27 28  2  0
 28 29  1  0
 29 30  2  0
 30 31  1  0
 30 32  1  0
 32 33  2  0
 15 34  1  0
 34 35  1  0
 12  2  1  0
 26 20  1  0
 33 27  1  0
 11  6  1  0
 35 12  1  0
  3 36  1  0
  4 37  1  0
  4 38  1  0
  7 39  1  0
  8 40  1  0
  9 41  1  0
 10 42  1  0
 11 43  1  0
 13 44  1  0
 13 45  1  0
 14 46  1  0
 14 47  1  0
 15 48  1  0
 16 49  1  0
 16 50  1  0
 17 51  1  0
 17 52  1  0
 18 53  1  0
 18 54  1  0
 19 55  1  0
 21 56  1  0
 22 57  1  0
 25 58  1  0
 26 59  1  0
 28 60  1  0
 29 61  1  0
 32 62  1  0
 33 63  1  0
 34 64  1  0
 34 65  1  0
 35 66  1  0
 35 67  1  0
M  CHG  1  15   1
M  END
>  <meeko>  (1) 
{"is_sidechain": false}

$$$$
