
     RDKit          3D

 39 41  0  0  0  0  0  0  0  0999 V2000
   26.7300   26.3490   -4.8570 Cl  0  0  0  0  0  0  0  0  0  0  0  0
   25.8460   25.4330   -6.0700 C   0  0  0  0  0  0  0  0  0  0  0  0
   25.3980   24.1460   -5.8340 C   0  0  0  0  0  0  0  0  0  0  0  0
   24.7010   23.4140   -6.7650 C   0  0  0  0  0  0  0  0  0  0  0  0
   24.4090   23.9600   -8.0250 C   0  0  0  0  0  0  0  0  0  0  0  0
   23.5810   23.1250   -8.9220 C   0  0  0  0  0  0  0  0  0  0  0  0
   23.2210   21.9410   -8.4020 O   0  0  0  0  0  0  0  0  0  0  0  0
   22.0690   21.3090   -8.5140 C   0  0  0  0  0  0  0  0  0  0  0  0
   22.2860   20.1300   -9.4960 C   0  0  0  0  0  0  0  0  0  0  0  0
   21.6010   20.4260  -10.7160 N   0  0  0  0  0  0  0  0  0  0  0  0
   21.2090   19.5660  -11.6690 C   0  0  0  0  0  0  0  0  0  0  0  0
   20.5990   20.3360  -12.6380 C   0  0  0  0  0  0  0  0  0  0  0  0
   20.6350   21.6230  -12.2560 N   0  0  0  0  0  0  0  0  0  0  0  0
   21.2460   21.6750  -11.0830 C   0  0  0  0  0  0  0  0  0  0  0  0
   21.5970   20.7140   -7.2000 C   0  0  0  0  0  0  0  0  0  0  0  0
   21.6780   19.3650   -6.9510 C   0  0  0  0  0  0  0  0  0  0  0  0
   21.2260   18.8500   -5.7270 C   0  0  0  0  0  0  0  0  0  0  0  0
   20.7000   19.6730   -4.7590 C   0  0  0  0  0  0  0  0  0  0  0  0
   20.1310   19.0300   -3.2270 Cl  0  0  0  0  0  0  0  0  0  0  0  0
   20.6190   21.0290   -5.0120 C   0  0  0  0  0  0  0  0  0  0  0  0
   21.0700   21.5300   -6.2320 C   0  0  0  0  0  0  0  0  0  0  0  0
   20.9730   23.2490   -6.5690 Cl  0  0  0  0  0  0  0  0  0  0  0  0
   24.8480   25.2260   -8.2660 C   0  0  0  0  0  0  0  0  0  0  0  0
   24.5950   25.9190   -9.8650 Cl  0  0  0  0  0  0  0  0  0  0  0  0
   25.5580   25.9620   -7.3050 C   0  0  0  0  0  0  0  0  0  0  0  0
   25.6092   23.6875   -4.8567 H   0  0  0  0  0  0  0  0  0  0  0  0
   24.3697   22.3937   -6.5214 H   0  0  0  0  0  0  0  0  0  0  0  0
   22.6667   23.6854   -9.1669 H   0  0  0  0  0  0  0  0  0  0  0  0
   24.1988   22.9051   -9.8051 H   0  0  0  0  0  0  0  0  0  0  0  0
   21.3140   22.0328   -8.8547 H   0  0  0  0  0  0  0  0  0  0  0  0
   23.3607   20.0049   -9.6944 H   0  0  0  0  0  0  0  0  0  0  0  0
   21.8956   19.1986   -9.0600 H   0  0  0  0  0  0  0  0  0  0  0  0
   21.3456   18.4745  -11.6761 H   0  0  0  0  0  0  0  0  0  0  0  0
   20.1557   19.9576  -13.5709 H   0  0  0  0  0  0  0  0  0  0  0  0
   21.4341   22.5893  -10.5010 H   0  0  0  0  0  0  0  0  0  0  0  0
   22.0971   18.6893   -7.7112 H   0  0  0  0  0  0  0  0  0  0  0  0
   21.2935   17.7684   -5.5381 H   0  0  0  0  0  0  0  0  0  0  0  0
   20.2011   21.7090   -4.2551 H   0  0  0  0  0  0  0  0  0  0  0  0
   25.8906   26.9826   -7.5452 H   0  0  0  0  0  0  0  0  0  0  0  0
  1  2  1  0
  2  3  2  0
  3  4  1  0
  4  5  2  0
  5  6  1  0
  6  7  1  0
  7  8  1  0
  8  9  1  0
  9 10  1  0
 10 11  1  0
 11 12  2  0
 12 13  1  0
 13 14  2  0
  8 15  1  0
 15 16  2  0
 16 17  1  0
 17 18  2  0
 18 19  1  0
 18 20  1  0
 20 21  2  0
 21 22  1  0
  5 23  1  0
 23 24  1  0
 23 25  2  0
 25  2  1  0
 14 10  1  0
 21 15  1  0
  3 26  1  0
  4 27  1  0
  6 28  1  0
  6 29  1  0
  8 30  1  0
  9 31  1  0
  9 32  1  0
 11 33  1  0
 12 34  1  0
 14 35  1  0
 16 36  1  0
 17 37  1  0
 20 38  1  0
 25 39  1  0
M  END
>  <meeko>  (1) 
{"is_sidechain": false}

$$$$
