
     RDKit          3D

 67 71  0  0  0  0  0  0  0  0999 V2000
   33.2550   10.2810  -36.5120 O   0  0  0  0  0  0  0  0  0  0  0  0
   32.9890    9.9640  -35.3340 C   0  0  0  0  0  0  0  0  0  0  0  0
   31.7170   10.0900  -34.7480 N   0  0  0  0  0  0  0  0  0  0  0  0
   31.7130    9.2230  -33.6120 C   0  0  0  0  0  0  0  0  0  0  0  0
   33.1150    9.2160  -33.1650 N   0  0  0  0  0  0  0  0  0  0  0  0
   33.4460    9.0700  -31.7940 C   0  0  0  0  0  0  0  0  0  0  0  0
   34.5390    8.3340  -31.4030 C   0  0  0  0  0  0  0  0  0  0  0  0
   34.8870    8.2000  -30.0550 C   0  0  0  0  0  0  0  0  0  0  0  0
   34.0950    8.8340  -29.1220 C   0  0  0  0  0  0  0  0  0  0  0  0
   33.0080    9.5650  -29.5230 C   0  0  0  0  0  0  0  0  0  0  0  0
   32.6850    9.6830  -30.8470 C   0  0  0  0  0  0  0  0  0  0  0  0
   33.9710    9.3960  -34.3350 C   0  0  0  0  0  0  0  0  0  0  0  0
   35.0640   10.4180  -34.0950 C   0  0  0  0  0  0  0  0  0  0  0  0
   35.9070   10.6240  -35.3310 C   0  0  0  0  0  0  0  0  0  0  0  0
   36.3000    9.3700  -35.9400 N   0  0  0  0  0  4  0  0  0  0  0  0
   37.6860    9.3860  -36.3960 C   0  0  0  0  0  0  0  0  0  0  0  0
   38.4290    8.2100  -35.8350 C   0  0  0  0  0  0  0  0  0  0  0  0
   39.8930    8.2950  -35.8080 C   0  0  0  0  0  0  0  0  0  0  0  0
   40.6940    8.5100  -37.0060 C   0  0  0  0  0  0  0  0  0  0  0  0
   41.8440    9.4710  -36.8560 C   0  0  0  0  0  0  0  0  0  0  0  0
   42.5690    9.7470  -37.9940 C   0  0  0  0  0  0  0  0  0  0  0  0
   43.6470   10.5940  -37.9360 C   0  0  0  0  0  0  0  0  0  0  0  0
   44.0140   11.1750  -36.7430 C   0  0  0  0  0  0  0  0  0  0  0  0
   45.0820   12.0110  -36.6980 F   0  0  0  0  0  0  0  0  0  0  0  0
   43.2610   10.8780  -35.6010 C   0  0  0  0  0  0  0  0  0  0  0  0
   42.1850   10.0330  -35.6550 C   0  0  0  0  0  0  0  0  0  0  0  0
   41.0630    7.3970  -37.8640 C   0  0  0  0  0  0  0  0  0  0  0  0
   42.3220    6.9080  -38.0730 C   0  0  0  0  0  0  0  0  0  0  0  0
   42.4940    5.8340  -38.9550 C   0  0  0  0  0  0  0  0  0  0  0  0
   41.4290    5.2670  -39.6080 C   0  0  0  0  0  0  0  0  0  0  0  0
   41.5680    4.2230  -40.4690 F   0  0  0  0  0  0  0  0  0  0  0  0
   40.1560    5.7480  -39.4060 C   0  0  0  0  0  0  0  0  0  0  0  0
   40.0030    6.7900  -38.5500 C   0  0  0  0  0  0  0  0  0  0  0  0
   35.9790    8.2380  -35.1100 C   0  0  0  0  0  0  0  0  0  0  0  0
   34.5050    8.1280  -34.8970 C   0  0  0  0  0  0  0  0  0  0  0  0
   30.9370   10.7090  -35.0990 H   0  0  0  0  0  0  0  0  0  0  0  0
   31.0532    9.6144  -32.8237 H   0  0  0  0  0  0  0  0  0  0  0  0
   31.3390    8.2160  -33.8491 H   0  0  0  0  0  0  0  0  0  0  0  0
   35.1546    7.8387  -32.1683 H   0  0  0  0  0  0  0  0  0  0  0  0
   35.7630    7.6088  -29.7498 H   0  0  0  0  0  0  0  0  0  0  0  0
   34.3365    8.7528  -28.0519 H   0  0  0  0  0  0  0  0  0  0  0  0
   32.3844   10.0655  -28.7676 H   0  0  0  0  0  0  0  0  0  0  0  0
   31.8078   10.2750  -31.1470 H   0  0  0  0  0  0  0  0  0  0  0  0
   34.6026   11.3758  -33.8128 H   0  0  0  0  0  0  0  0  0  0  0  0
   35.7150   10.0461  -33.2901 H   0  0  0  0  0  0  0  0  0  0  0  0
   35.3274   11.2067  -36.0621 H   0  0  0  0  0  0  0  0  0  0  0  0
   36.8222   11.1554  -35.0310 H   0  0  0  0  0  0  0  0  0  0  0  0
   35.7460    9.2740  -36.8180 H   0  0  0  0  0  0  0  0  0  0  0  0
   37.7077    9.3391  -37.4948 H   0  0  0  0  0  0  0  0  0  0  0  0
   38.1671   10.3129  -36.0504 H   0  0  0  0  0  0  0  0  0  0  0  0
   38.0865    8.0649  -34.7998 H   0  0  0  0  0  0  0  0  0  0  0  0
   38.2050    7.3791  -36.5201 H   0  0  0  0  0  0  0  0  0  0  0  0
   40.1368    9.1235  -35.1267 H   0  0  0  0  0  0  0  0  0  0  0  0
   40.1701    7.2654  -35.5377 H   0  0  0  0  0  0  0  0  0  0  0  0
   39.8849    8.9866  -37.5790 H   0  0  0  0  0  0  0  0  0  0  0  0
   42.2832    9.2874  -38.9516 H   0  0  0  0  0  0  0  0  0  0  0  0
   44.2217   10.8102  -38.8487 H   0  0  0  0  0  0  0  0  0  0  0  0
   43.5398   11.3334  -34.6393 H   0  0  0  0  0  0  0  0  0  0  0  0
   41.6040    9.8093  -34.7482 H   0  0  0  0  0  0  0  0  0  0  0  0
   43.1864    7.3510  -37.5567 H   0  0  0  0  0  0  0  0  0  0  0  0
   43.5049    5.4364  -39.1280 H   0  0  0  0  0  0  0  0  0  0  0  0
   39.2916    5.3032  -39.9207 H   0  0  0  0  0  0  0  0  0  0  0  0
   38.9879    7.1806  -38.3853 H   0  0  0  0  0  0  0  0  0  0  0  0
   36.3409    7.3209  -35.5977 H   0  0  0  0  0  0  0  0  0  0  0  0
   36.4641    8.3732  -34.1320 H   0  0  0  0  0  0  0  0  0  0  0  0
   34.0134    7.9216  -35.8591 H   0  0  0  0  0  0  0  0  0  0  0  0
   34.3049    7.3098  -34.1896 H   0  0  0  0  0  0  0  0  0  0  0  0
  1  2  2  0
  2  3  1  0
  3  4  1  0
  4  5  1  0
  5  6  1  0
  6  7  2  0
  7  8  1  0
  8  9  2  0
  9 10  1  0
 10 11  2  0
  5 12  1  0
 12 13  1  0
 13 14  1  0
 14 15  1  0
 15 16  1  0
 16 17  1  0
 17 18  1  0
 18 19  1  0
 19 20  1  0
 20 21  2  0
 21 22  1  0
 22 23  2  0
 23 24  1  0
 23 25  1  0
 25 26  2  0
 19 27  1  0
 27 28  2  0
 28 29  1  0
 29 30  2  0
 30 31  1  0
 30 32  1  0
 32 33  2  0
 15 34  1  0
 34 35  1  0
 12  2  1  0
 26 20  1  0
 33 27  1  0
 11  6  1  0
 35 12  1  0
  3 36  1  0
  4 37  1  0
  4 38  1  0
  7 39  1  0
  8 40  1  0
  9 41  1  0
 10 42  1  0
 11 43  1  0
 13 44  1  0
 13 45  1  0
 14 46  1  0
 14 47  1  0
 15 48  1  0
 16 49  1  0
 16 50  1  0
 17 51  1  0
 17 52  1  0
 18 53  1  0
 18 54  1  0
 19 55  1  0
 21 56  1  0
 22 57  1  0
 25 58  1  0
 26 59  1  0
 28 60  1  0
 29 61  1  0
 32 62  1  0
 33 63  1  0
 34 64  1  0
 34 65  1  0
 35 66  1  0
 35 67  1  0
M  CHG  1  15   1
M  END
>  <meeko>  (1) 
{"is_sidechain": false}

$$$$
