
     RDKit          3D

 50 52  0  0  0  0  0  0  0  0999 V2000
  112.6370  123.9880  110.5610 O   0  0  0  0  0  0  0  0  0  0  0  0
  111.8910  123.4030  111.3880 C   0  0  0  0  0  0  0  0  0  0  0  0
  111.2820  122.1060  111.0850 C   0  0  0  0  0  0  0  0  0  0  0  0
  112.1040  121.2330  110.1620 C   0  0  0  0  0  0  0  0  0  0  0  0
  111.3840  121.1140  108.8630 C   0  0  0  0  0  0  0  0  0  0  0  0
  111.2130  122.3970  108.1930 N   0  0  0  0  0  4  0  0  0  0  0  0
  112.3430  122.7480  107.3880 C   0  0  0  0  0  0  0  0  0  0  0  0
  112.5970  121.7240  106.3160 C   0  0  0  0  0  0  0  0  0  0  0  0
  111.3940  121.6330  105.4250 C   0  0  0  0  0  0  0  0  0  0  0  0
  111.7400  122.3130  104.2330 O   0  0  0  0  0  0  0  0  0  0  0  0
  111.1490  120.2150  104.9790 C   0  0  0  0  0  0  0  0  0  0  0  0
  112.1580  119.2760  104.9370 C   0  0  0  0  0  0  0  0  0  0  0  0
  111.9760  117.9720  104.5360 C   0  0  0  0  0  0  0  0  0  0  0  0
  110.7340  117.5680  104.1550 C   0  0  0  0  0  0  0  0  0  0  0  0
  110.4810  115.9170  103.6430 Cl  0  0  0  0  0  0  0  0  0  0  0  0
  109.7000  118.4640  104.1790 C   0  0  0  0  0  0  0  0  0  0  0  0
  109.9070  119.7670  104.5860 C   0  0  0  0  0  0  0  0  0  0  0  0
  110.1710  122.2850  105.9560 C   0  0  0  0  0  0  0  0  0  0  0  0
  110.0180  122.3890  107.4140 C   0  0  0  0  0  0  0  0  0  0  0  0
  111.6670  124.1020  112.6710 C   0  0  0  0  0  0  0  0  0  0  0  0
  112.5520  125.0730  113.1050 C   0  0  0  0  0  0  0  0  0  0  0  0
  112.3390  125.7190  114.2990 C   0  0  0  0  0  0  0  0  0  0  0  0
  111.2460  125.4050  115.0660 C   0  0  0  0  0  0  0  0  0  0  0  0
  110.9940  126.0220  116.2650 F   0  0  0  0  0  0  0  0  0  0  0  0
  110.3640  124.4470  114.6480 C   0  0  0  0  0  0  0  0  0  0  0  0
  110.5830  123.8080  113.4570 C   0  0  0  0  0  0  0  0  0  0  0  0
  111.1354  121.5647  112.0313 H   0  0  0  0  0  0  0  0  0  0  0  0
  110.3373  122.3159  110.5620 H   0  0  0  0  0  0  0  0  0  0  0  0
  113.0910  121.6904  109.9992 H   0  0  0  0  0  0  0  0  0  0  0  0
  112.2448  120.2378  110.6088 H   0  0  0  0  0  0  0  0  0  0  0  0
  111.9575  120.4465  108.2031 H   0  0  0  0  0  0  0  0  0  0  0  0
  110.3812  120.7147  109.0752 H   0  0  0  0  0  0  0  0  0  0  0  0
  111.1760  123.1080  108.9830 H   0  0  0  0  0  0  0  0  0  0  0  0
  112.1548  123.7225  106.9137 H   0  0  0  0  0  0  0  0  0  0  0  0
  113.2289  122.7929  108.0385 H   0  0  0  0  0  0  0  0  0  0  0  0
  113.4730  122.0232  105.7218 H   0  0  0  0  0  0  0  0  0  0  0  0
  112.7887  120.7447  106.7788 H   0  0  0  0  0  0  0  0  0  0  0  0
  111.3880  123.2340  104.3200 H   0  0  0  0  0  0  0  0  0  0  0  0
  113.1679  119.5875  105.2420 H   0  0  0  0  0  0  0  0  0  0  0  0
  112.8210  117.2679  104.5238 H   0  0  0  0  0  0  0  0  0  0  0  0
  108.6940  118.1430  103.8710 H   0  0  0  0  0  0  0  0  0  0  0  0
  109.0576  120.4659  104.5967 H   0  0  0  0  0  0  0  0  0  0  0  0
  110.1443  123.3075  105.5513 H   0  0  0  0  0  0  0  0  0  0  0  0
  109.3504  121.6232  105.6418 H   0  0  0  0  0  0  0  0  0  0  0  0
  109.4785  123.3241  107.6249 H   0  0  0  0  0  0  0  0  0  0  0  0
  109.4901  121.4709  107.7114 H   0  0  0  0  0  0  0  0  0  0  0  0
  113.4290  125.3287  112.4922 H   0  0  0  0  0  0  0  0  0  0  0  0
  113.0462  126.4893  114.6403 H   0  0  0  0  0  0  0  0  0  0  0  0
  109.4877  124.1925  115.2623 H   0  0  0  0  0  0  0  0  0  0  0  0
  109.8710  123.0392  113.1224 H   0  0  0  0  0  0  0  0  0  0  0  0
  1  2  2  0
  2  3  1  0
  3  4  1  0
  4  5  1  0
  5  6  1  0
  6  7  1  0
  7  8  1  0
  8  9  1  0
  9 10  1  0
  9 11  1  0
 11 12  2  0
 12 13  1  0
 13 14  2  0
 14 15  1  0
 14 16  1  0
 16 17  2  0
  9 18  1  0
 18 19  1  0
  2 20  1  0
 20 21  2  0
 21 22  1  0
 22 23  2  0
 23 24  1  0
 23 25  1  0
 25 26  2  0
 19  6  1  0
 26 20  1  0
 17 11  1  0
  3 27  1  0
  3 28  1  0
  4 29  1  0
  4 30  1  0
  5 31  1  0
  5 32  1  0
  6 33  1  0
  7 34  1  0
  7 35  1  0
  8 36  1  0
  8 37  1  0
 10 38  1  0
 12 39  1  0
 13 40  1  0
 16 41  1  0
 17 42  1  0
 18 43  1  0
 18 44  1  0
 19 45  1  0
 19 46  1  0
 21 47  1  0
 22 48  1  0
 25 49  1  0
 26 50  1  0
M  CHG  1   6   1
M  END
>  <meeko>  (1) 
{"is_sidechain": false}

$$$$
