
     RDKit          3D

 85 89  0  0  0  0  0  0  0  0999 V2000
   16.2150    5.8600   -7.5510 C   0  0  0  0  0  0  0  0  0  0  0  0
   17.6070    6.0160   -7.3720 O   0  0  0  0  0  0  0  0  0  0  0  0
   18.3240    6.9810   -8.1040 C   0  0  0  0  0  0  0  0  0  0  0  0
   19.0960    6.5050   -9.0160 O   0  0  0  0  0  0  0  0  0  0  0  0
   18.2130    8.3880   -7.8830 C   0  0  0  0  0  0  0  0  0  0  0  0
   17.5220    9.1320   -8.7940 C   0  0  0  0  0  0  0  0  0  0  0  0
   16.9180    8.5240   -9.9790 C   0  0  0  0  0  0  0  0  0  0  0  0
   17.2740   10.5430   -8.4590 N   0  0  0  0  0  4  0  0  0  0  0  0
   16.7850   10.4780   -7.0910 C   0  0  0  0  0  0  0  0  0  0  0  0
   15.5280   11.1700   -6.7550 C   0  0  0  0  0  0  0  0  0  0  0  0
   17.5110    9.7740   -6.1870 C   0  0  0  0  0  0  0  0  0  0  0  0
   17.0650    9.6700   -4.8480 C   0  0  0  0  0  0  0  0  0  0  0  0
   16.2730    8.7190   -4.5500 O   0  0  0  0  0  0  0  0  0  0  0  0
   17.3880   10.4780   -3.7810 O   0  0  0  0  0  0  0  0  0  0  0  0
   17.3670   10.0770   -2.4230 C   0  0  0  0  0  0  0  0  0  0  0  0
   17.4610   11.2140   -1.4760 C   0  0  0  0  0  0  0  0  0  0  0  0
   17.3970   10.8710   -0.0130 C   0  0  0  0  0  0  0  0  0  0  0  0
   16.1490   10.7500    0.5900 N   0  0  0  0  0  0  0  0  0  0  0  0
   15.1450   11.7080    0.4250 C   0  0  0  0  0  0  0  0  0  0  0  0
   13.8240   11.0280    0.1210 C   0  0  0  0  0  0  0  0  0  0  0  0
   13.6020    9.9380    1.1120 C   0  0  0  0  0  0  0  0  0  0  0  0
   13.7140    8.5730    0.5660 C   0  0  0  0  0  0  0  0  0  0  0  0
   13.5310    7.5350    1.4840 C   0  0  0  0  0  0  0  0  0  0  0  0
   13.6110    6.2120    1.1080 C   0  0  0  0  0  0  0  0  0  0  0  0
   13.8790    5.8650   -0.2050 C   0  0  0  0  0  0  0  0  0  0  0  0
   14.0600    6.9100   -1.1130 C   0  0  0  0  0  0  0  0  0  0  0  0
   13.9760    8.2260   -0.7200 C   0  0  0  0  0  0  0  0  0  0  0  0
   12.1750   10.0480    1.5850 C   0  0  0  0  0  0  0  0  0  0  0  0
   11.9910   10.0570    2.9560 C   0  0  0  0  0  0  0  0  0  0  0  0
   10.7460   10.1520    3.5420 C   0  0  0  0  0  0  0  0  0  0  0  0
    9.6660   10.2390    2.6710 C   0  0  0  0  0  0  0  0  0  0  0  0
    9.8430   10.2300    1.2990 C   0  0  0  0  0  0  0  0  0  0  0  0
   11.1040   10.1340    0.7450 C   0  0  0  0  0  0  0  0  0  0  0  0
   14.5570   10.0560    2.2760 C   0  0  0  0  0  0  0  0  0  0  0  0
   15.9760    9.9580    1.7420 C   0  0  0  0  0  0  0  0  0  0  0  0
   18.7540    9.2290   -6.8150 C   0  0  0  0  0  0  0  0  0  0  0  0
   19.8780    8.9320   -6.0190 C   0  0  0  0  0  0  0  0  0  0  0  0
   20.8320    9.9370   -5.8390 C   0  0  0  0  0  0  0  0  0  0  0  0
   21.9620    9.7030   -5.0980 C   0  0  0  0  0  0  0  0  0  0  0  0
   22.2170    8.4860   -4.5040 C   0  0  0  0  0  0  0  0  0  0  0  0
   21.2990    7.4800   -4.6680 C   0  0  0  0  0  0  0  0  0  0  0  0
   21.5430    6.2200   -4.0690 N   0  0  0  0  0  4  0  0  0  0  0  0
   21.2220    5.1380   -4.5950 O   0  0  0  0  0  0  0  0  0  0  0  0
   22.1630    6.1750   -2.8500 O   0  0  0  0  0  1  0  0  0  0  0  0
   20.1440    7.7320   -5.4290 C   0  0  0  0  0  0  0  0  0  0  0  0
   15.7229    5.8049   -6.5688 H   0  0  0  0  0  0  0  0  0  0  0  0
   15.8188    6.7194   -8.1118 H   0  0  0  0  0  0  0  0  0  0  0  0
   16.0189    4.9343   -8.1118 H   0  0  0  0  0  0  0  0  0  0  0  0
   16.1743    7.7754   -9.6683 H   0  0  0  0  0  0  0  0  0  0  0  0
   16.4255    9.3026  -10.5800 H   0  0  0  0  0  0  0  0  0  0  0  0
   17.6999    8.0367  -10.5800 H   0  0  0  0  0  0  0  0  0  0  0  0
   16.4860   10.8400   -9.0820 H   0  0  0  0  0  0  0  0  0  0  0  0
   18.1190   11.0560   -8.5640 H   0  0  0  0  0  0  0  0  0  0  0  0
   15.4224   11.2281   -5.6616 H   0  0  0  0  0  0  0  0  0  0  0  0
   15.5448   12.1860   -7.1763 H   0  0  0  0  0  0  0  0  0  0  0  0
   14.6785   10.6124   -7.1763 H   0  0  0  0  0  0  0  0  0  0  0  0
   16.4264    9.5398   -2.2318 H   0  0  0  0  0  0  0  0  0  0  0  0
   18.2483    9.4400   -2.2569 H   0  0  0  0  0  0  0  0  0  0  0  0
   18.4183   11.7240   -1.6589 H   0  0  0  0  0  0  0  0  0  0  0  0
   16.5721   11.8319   -1.6711 H   0  0  0  0  0  0  0  0  0  0  0  0
   17.9143    9.9090    0.1171 H   0  0  0  0  0  0  0  0  0  0  0  0
   17.8519   11.7396    0.4856 H   0  0  0  0  0  0  0  0  0  0  0  0
   15.0476   12.2964    1.3493 H   0  0  0  0  0  0  0  0  0  0  0  0
   15.4115   12.3698   -0.4123 H   0  0  0  0  0  0  0  0  0  0  0  0
   13.0070   11.7613    0.1897 H   0  0  0  0  0  0  0  0  0  0  0  0
   13.8467   10.6081   -0.8955 H   0  0  0  0  0  0  0  0  0  0  0  0
   13.3174    7.7810    2.5347 H   0  0  0  0  0  0  0  0  0  0  0  0
   13.4603    5.4228    1.8593 H   0  0  0  0  0  0  0  0  0  0  0  0
   13.9463    4.8129   -0.5190 H   0  0  0  0  0  0  0  0  0  0  0  0
   14.2746    6.6760   -2.1662 H   0  0  0  0  0  0  0  0  0  0  0  0
   14.1252    9.0184   -1.4682 H   0  0  0  0  0  0  0  0  0  0  0  0
   12.8751    9.9853    3.6065 H   0  0  0  0  0  0  0  0  0  0  0  0
   10.6154   10.1585    4.6342 H   0  0  0  0  0  0  0  0  0  0  0  0
    8.6485   10.3167    3.0817 H   0  0  0  0  0  0  0  0  0  0  0  0
    8.9656   10.3004    0.6393 H   0  0  0  0  0  0  0  0  0  0  0  0
   11.2414   10.1271   -0.3464 H   0  0  0  0  0  0  0  0  0  0  0  0
   14.4144   11.0248    2.7771 H   0  0  0  0  0  0  0  0  0  0  0  0
   14.3695    9.2516    3.0025 H   0  0  0  0  0  0  0  0  0  0  0  0
   16.6751   10.3000    2.5194 H   0  0  0  0  0  0  0  0  0  0  0  0
   16.1724    8.9096    1.4732 H   0  0  0  0  0  0  0  0  0  0  0  0
   19.4510    9.9571   -7.2556 H   0  0  0  0  0  0  0  0  0  0  0  0
   20.6751   10.9252   -6.2960 H   0  0  0  0  0  0  0  0  0  0  0  0
   22.6916   10.5167   -4.9732 H   0  0  0  0  0  0  0  0  0  0  0  0
   23.1317    8.3256   -3.9144 H   0  0  0  0  0  0  0  0  0  0  0  0
   19.4158    6.9172   -5.5552 H   0  0  0  0  0  0  0  0  0  0  0  0
  1  2  1  0
  2  3  1  0
  3  4  2  0
  3  5  1  0
  5  6  2  0
  6  7  1  0
  6  8  1  0
  8  9  1  0
  9 10  1  0
  9 11  2  0
 11 12  1  0
 12 13  2  0
 12 14  1  0
 14 15  1  0
 15 16  1  0
 16 17  1  0
 17 18  1  0
 18 19  1  0
 19 20  1  0
 20 21  1  0
 21 22  1  0
 22 23  2  0
 23 24  1  0
 24 25  2  0
 25 26  1  0
 26 27  2  0
 21 28  1  0
 28 29  2  0
 29 30  1  0
 30 31  2  0
 31 32  1  0
 32 33  2  0
 21 34  1  0
 34 35  1  0
 11 36  1  0
 36 37  1  0
 37 38  2  0
 38 39  1  0
 39 40  2  0
 40 41  1  0
 41 42  1  0
 42 43  2  0
 42 44  1  0
 41 45  2  0
 36  5  1  0
 45 37  1  0
 35 18  1  0
 27 22  1  0
 33 28  1  0
  1 46  1  0
  1 47  1  0
  1 48  1  0
  7 49  1  0
  7 50  1  0
  7 51  1  0
  8 52  1  0
  8 53  1  0
 10 54  1  0
 10 55  1  0
 10 56  1  0
 15 57  1  0
 15 58  1  0
 16 59  1  0
 16 60  1  0
 17 61  1  0
 17 62  1  0
 19 63  1  0
 19 64  1  0
 20 65  1  0
 20 66  1  0
 23 67  1  0
 24 68  1  0
 25 69  1  0
 26 70  1  0
 27 71  1  0
 29 72  1  0
 30 73  1  0
 31 74  1  0
 32 75  1  0
 33 76  1  0
 34 77  1  0
 34 78  1  0
 35 79  1  0
 35 80  1  0
 36 81  1  0
 38 82  1  0
 39 83  1  0
 40 84  1  0
 45 85  1  0
M  CHG  3   8   1  42   1  44  -1
M  END
>  <meeko>  (1) 
{"is_sidechain": false}

$$$$
