
     RDKit          3D

 50 52  0  0  0  0  0  0  0  0999 V2000
  -10.6300   18.9810  -45.5170 O   0  0  0  0  0  0  0  0  0  0  0  0
  -11.3110   18.2220  -44.7790 C   0  0  0  0  0  0  0  0  0  0  0  0
  -11.2010   16.7650  -44.8730 C   0  0  0  0  0  0  0  0  0  0  0  0
   -9.8710   16.2090  -44.4130 C   0  0  0  0  0  0  0  0  0  0  0  0
  -10.1310   15.1120  -43.4390 C   0  0  0  0  0  0  0  0  0  0  0  0
   -8.9980   14.8620  -42.5570 N   0  0  0  0  0  4  0  0  0  0  0  0
   -8.7330   15.9630  -41.6820 C   0  0  0  0  0  0  0  0  0  0  0  0
   -9.9140   16.2670  -40.8020 C   0  0  0  0  0  0  0  0  0  0  0  0
  -10.2280   15.0630  -39.9640 C   0  0  0  0  0  0  0  0  0  0  0  0
   -9.7510   15.3600  -38.6640 O   0  0  0  0  0  0  0  0  0  0  0  0
  -11.7140   14.8960  -39.7790 C   0  0  0  0  0  0  0  0  0  0  0  0
  -12.5560   15.9760  -39.6090 C   0  0  0  0  0  0  0  0  0  0  0  0
  -13.9170   15.8670  -39.4370 C   0  0  0  0  0  0  0  0  0  0  0  0
  -14.4820   14.6300  -39.4310 C   0  0  0  0  0  0  0  0  0  0  0  0
  -16.2090   14.4690  -39.2150 Cl  0  0  0  0  0  0  0  0  0  0  0  0
  -13.6880   13.5280  -39.5950 C   0  0  0  0  0  0  0  0  0  0  0  0
  -12.3240   13.6620  -39.7670 C   0  0  0  0  0  0  0  0  0  0  0  0
   -9.5610   13.8090  -40.3930 C   0  0  0  0  0  0  0  0  0  0  0  0
   -9.2100   13.6630  -41.8130 C   0  0  0  0  0  0  0  0  0  0  0  0
  -12.2190   18.8880  -43.8220 C   0  0  0  0  0  0  0  0  0  0  0  0
  -12.5650   18.2690  -42.6350 C   0  0  0  0  0  0  0  0  0  0  0  0
  -13.4110   18.8940  -41.7500 C   0  0  0  0  0  0  0  0  0  0  0  0
  -13.9150   20.1360  -42.0390 C   0  0  0  0  0  0  0  0  0  0  0  0
  -14.7640   20.7950  -41.1880 F   0  0  0  0  0  0  0  0  0  0  0  0
  -13.5810   20.7580  -43.2110 C   0  0  0  0  0  0  0  0  0  0  0  0
  -12.7380   20.1300  -44.0880 C   0  0  0  0  0  0  0  0  0  0  0  0
  -11.9933   16.3192  -44.2537 H   0  0  0  0  0  0  0  0  0  0  0  0
  -11.2967   16.5104  -45.9389 H   0  0  0  0  0  0  0  0  0  0  0  0
   -9.3145   15.8151  -45.2762 H   0  0  0  0  0  0  0  0  0  0  0  0
   -9.2739   17.0017  -43.9386 H   0  0  0  0  0  0  0  0  0  0  0  0
  -11.0014   15.3860  -42.8246 H   0  0  0  0  0  0  0  0  0  0  0  0
  -10.3125   14.1926  -44.0150 H   0  0  0  0  0  0  0  0  0  0  0  0
   -8.1620   14.7900  -43.2100 H   0  0  0  0  0  0  0  0  0  0  0  0
   -7.8694   15.7149  -41.0475 H   0  0  0  0  0  0  0  0  0  0  0  0
   -8.5255   16.8502  -42.2983 H   0  0  0  0  0  0  0  0  0  0  0  0
   -9.6757   17.1186  -40.1477 H   0  0  0  0  0  0  0  0  0  0  0  0
  -10.7840   16.5201  -41.4257 H   0  0  0  0  0  0  0  0  0  0  0  0
   -9.8930   16.3290  -38.5250 H   0  0  0  0  0  0  0  0  0  0  0  0
  -12.1134   16.9830  -39.6111 H   0  0  0  0  0  0  0  0  0  0  0  0
  -14.5377   16.7657  -39.3065 H   0  0  0  0  0  0  0  0  0  0  0  0
  -14.1403   12.5253  -39.5898 H   0  0  0  0  0  0  0  0  0  0  0  0
  -11.7093   12.7592  -39.8978 H   0  0  0  0  0  0  0  0  0  0  0  0
   -8.6291   13.7204  -39.8153 H   0  0  0  0  0  0  0  0  0  0  0  0
  -10.3112   13.0247  -40.2142 H   0  0  0  0  0  0  0  0  0  0  0  0
   -8.2839   13.0719  -41.8663 H   0  0  0  0  0  0  0  0  0  0  0  0
  -10.0896   13.1924  -42.2765 H   0  0  0  0  0  0  0  0  0  0  0  0
  -12.1620   17.2733  -42.3981 H   0  0  0  0  0  0  0  0  0  0  0  0
  -13.6843   18.3966  -40.8077 H   0  0  0  0  0  0  0  0  0  0  0  0
  -13.9860   21.7533  -43.4463 H   0  0  0  0  0  0  0  0  0  0  0  0
  -12.4702   20.6333  -45.0287 H   0  0  0  0  0  0  0  0  0  0  0  0
  1  2  2  0
  2  3  1  0
  3  4  1  0
  4  5  1  0
  5  6  1  0
  6  7  1  0
  7  8  1  0
  8  9  1  0
  9 10  1  0
  9 11  1  0
 11 12  2  0
 12 13  1  0
 13 14  2  0
 14 15  1  0
 14 16  1  0
 16 17  2  0
  9 18  1  0
 18 19  1  0
  2 20  1  0
 20 21  2  0
 21 22  1  0
 22 23  2  0
 23 24  1  0
 23 25  1  0
 25 26  2  0
 19  6  1  0
 26 20  1  0
 17 11  1  0
  3 27  1  0
  3 28  1  0
  4 29  1  0
  4 30  1  0
  5 31  1  0
  5 32  1  0
  6 33  1  0
  7 34  1  0
  7 35  1  0
  8 36  1  0
  8 37  1  0
 10 38  1  0
 12 39  1  0
 13 40  1  0
 16 41  1  0
 17 42  1  0
 18 43  1  0
 18 44  1  0
 19 45  1  0
 19 46  1  0
 21 47  1  0
 22 48  1  0
 25 49  1  0
 26 50  1  0
M  CHG  1   6   1
M  END
>  <meeko>  (1) 
{"is_sidechain": false}

$$$$
