
     RDKit          3D

 58 60  0  0  0  0  0  0  0  0999 V2000
   88.8410  121.8160  119.7980 C   0  0  0  0  0  0  0  0  0  0  0  0
   89.5020  122.3440  118.5580 C   0  0  0  0  0  0  0  0  0  0  0  0
   90.9370  122.6100  118.8530 C   0  0  0  0  0  0  0  0  0  0  0  0
   91.9070  122.5350  117.9800 C   0  0  0  0  0  0  0  0  0  0  0  0
   91.6040  122.1780  116.6090 C   0  0  0  0  0  0  0  0  0  0  0  0
   91.7730  120.8950  116.1260 C   0  0  0  0  0  0  0  0  0  0  0  0
   91.5130  120.6350  114.8050 C   0  0  0  0  0  0  0  0  0  0  0  0
   91.0820  121.6170  113.9350 C   0  0  0  0  0  0  0  0  0  0  0  0
   90.9040  122.9180  114.3980 C   0  0  0  0  0  0  0  0  0  0  0  0
   91.1710  123.1610  115.7250 C   0  0  0  0  0  0  0  0  0  0  0  0
   93.2980  122.7590  118.3320 C   0  0  0  0  0  0  0  0  0  0  0  0
   94.2340  121.7430  118.3270 C   0  0  0  0  0  0  0  0  0  0  0  0
   95.5500  121.9810  118.6900 C   0  0  0  0  0  0  0  0  0  0  0  0
   96.0190  123.2150  119.0740 C   0  0  0  0  0  0  0  0  0  0  0  0
   97.3240  123.4920  119.4380 O   0  0  0  0  0  0  0  0  0  0  0  0
   98.4410  123.6110  118.6310 C   0  0  0  0  0  0  0  0  0  0  0  0
   99.1340  122.3210  118.2770 C   0  0  0  0  0  0  0  0  0  0  0  0
   99.4940  122.2410  116.8940 N   0  0  0  0  0  4  0  0  0  0  0  0
   99.3410  123.4940  116.1870 C   0  0  0  0  0  0  0  0  0  0  0  0
   98.7300  121.2470  116.1690 C   0  0  0  0  0  0  0  0  0  0  0  0
   95.0650  124.2440  119.0780 C   0  0  0  0  0  0  0  0  0  0  0  0
   93.7630  124.0110  118.7200 C   0  0  0  0  0  0  0  0  0  0  0  0
   91.1930  123.0470  120.2380 C   0  0  0  0  0  0  0  0  0  0  0  0
   91.6470  122.1820  121.2000 C   0  0  0  0  0  0  0  0  0  0  0  0
   91.8610  122.6370  122.4770 C   0  0  0  0  0  0  0  0  0  0  0  0
   91.6170  123.9640  122.7880 C   0  0  0  0  0  0  0  0  0  0  0  0
   91.1610  124.8550  121.8430 C   0  0  0  0  0  0  0  0  0  0  0  0
   90.9580  124.3500  120.5560 C   0  0  0  0  0  0  0  0  0  0  0  0
   89.3489  122.2217  120.6854 H   0  0  0  0  0  0  0  0  0  0  0  0
   87.7843  122.1214  119.8086 H   0  0  0  0  0  0  0  0  0  0  0  0
   88.9054  120.7179  119.8086 H   0  0  0  0  0  0  0  0  0  0  0  0
   89.4224  121.6000  117.7517 H   0  0  0  0  0  0  0  0  0  0  0  0
   89.0082  123.2738  118.2393 H   0  0  0  0  0  0  0  0  0  0  0  0
   92.1127  120.0900  116.7943 H   0  0  0  0  0  0  0  0  0  0  0  0
   91.6522  119.6117  114.4263 H   0  0  0  0  0  0  0  0  0  0  0  0
   90.8803  121.3726  112.8816 H   0  0  0  0  0  0  0  0  0  0  0  0
   90.5628  123.7209  113.7279 H   0  0  0  0  0  0  0  0  0  0  0  0
   91.0354  124.1838  116.1065 H   0  0  0  0  0  0  0  0  0  0  0  0
   93.9297  120.7285  118.0300 H   0  0  0  0  0  0  0  0  0  0  0  0
   96.2566  121.1382  118.6699 H   0  0  0  0  0  0  0  0  0  0  0  0
   98.1302  124.0955  117.6936 H   0  0  0  0  0  0  0  0  0  0  0  0
   99.1706  124.1921  119.2142 H   0  0  0  0  0  0  0  0  0  0  0  0
  100.0483  122.2366  118.8827 H   0  0  0  0  0  0  0  0  0  0  0  0
   98.4290  121.5018  118.4815 H   0  0  0  0  0  0  0  0  0  0  0  0
  100.5120  121.9580  116.7750 H   0  0  0  0  0  0  0  0  0  0  0  0
   99.2408  124.3146  116.9127 H   0  0  0  0  0  0  0  0  0  0  0  0
  100.2245  123.6689  115.5554 H   0  0  0  0  0  0  0  0  0  0  0  0
   98.4414  123.4512  115.5554 H   0  0  0  0  0  0  0  0  0  0  0  0
   98.2202  120.5837  116.8832 H   0  0  0  0  0  0  0  0  0  0  0  0
   97.9827  121.7485  115.5365 H   0  0  0  0  0  0  0  0  0  0  0  0
   99.4069  120.6538  115.5365 H   0  0  0  0  0  0  0  0  0  0  0  0
   95.3686  125.2588  119.3747 H   0  0  0  0  0  0  0  0  0  0  0  0
   93.0539  124.8517  118.7404 H   0  0  0  0  0  0  0  0  0  0  0  0
   91.8388  121.1282  120.9495 H   0  0  0  0  0  0  0  0  0  0  0  0
   92.2261  121.9480  123.2529 H   0  0  0  0  0  0  0  0  0  0  0  0
   91.7919  124.3149  123.8158 H   0  0  0  0  0  0  0  0  0  0  0  0
   90.9666  125.9096  122.0882 H   0  0  0  0  0  0  0  0  0  0  0  0
   90.5951  125.0299  119.7711 H   0  0  0  0  0  0  0  0  0  0  0  0
  1  2  1  0
  2  3  1  0
  3  4  2  0
  4  5  1  0
  5  6  2  0
  6  7  1  0
  7  8  2  0
  8  9  1  0
  9 10  2  0
  4 11  1  0
 11 12  2  0
 12 13  1  0
 13 14  2  0
 14 15  1  0
 15 16  1  0
 16 17  1  0
 17 18  1  0
 18 19  1  0
 18 20  1  0
 14 21  1  0
 21 22  2  0
  3 23  1  0
 23 24  2  0
 24 25  1  0
 25 26  2  0
 26 27  1  0
 27 28  2  0
 10  5  1  0
 22 11  1  0
 28 23  1  0
  1 29  1  0
  1 30  1  0
  1 31  1  0
  2 32  1  0
  2 33  1  0
  6 34  1  0
  7 35  1  0
  8 36  1  0
  9 37  1  0
 10 38  1  0
 12 39  1  0
 13 40  1  0
 16 41  1  0
 16 42  1  0
 17 43  1  0
 17 44  1  0
 18 45  1  0
 19 46  1  0
 19 47  1  0
 19 48  1  0
 20 49  1  0
 20 50  1  0
 20 51  1  0
 21 52  1  0
 22 53  1  0
 24 54  1  0
 25 55  1  0
 26 56  1  0
 27 57  1  0
 28 58  1  0
M  CHG  1  18   1
M  END
>  <meeko>  (1) 
{"is_sidechain": false}

$$$$
