
     RDKit          3D

 50 52  0  0  0  0  0  0  0  0999 V2000
   95.0040  119.9350  116.9740 O   0  0  0  0  0  0  0  0  0  0  0  0
   94.8540  120.8820  116.1590 C   0  0  0  0  0  0  0  0  0  0  0  0
   96.0030  121.5710  115.5680 C   0  0  0  0  0  0  0  0  0  0  0  0
   97.3390  120.9330  115.8780 C   0  0  0  0  0  0  0  0  0  0  0  0
   98.3800  121.5890  115.0370 C   0  0  0  0  0  0  0  0  0  0  0  0
   99.5980  121.8890  115.7800 N   0  0  0  0  0  4  0  0  0  0  0  0
   99.8680  123.2930  115.8430 C   0  0  0  0  0  0  0  0  0  0  0  0
   98.7490  124.0420  116.5130 C   0  0  0  0  0  0  0  0  0  0  0  0
   98.5830  123.5310  117.9130 C   0  0  0  0  0  0  0  0  0  0  0  0
   99.1500  124.5180  118.7570 O   0  0  0  0  0  0  0  0  0  0  0  0
   97.1320  123.4970  118.3160 C   0  0  0  0  0  0  0  0  0  0  0  0
   96.2490  124.4930  117.9550 C   0  0  0  0  0  0  0  0  0  0  0  0
   94.9170  124.4990  118.3020 C   0  0  0  0  0  0  0  0  0  0  0  0
   94.4250  123.4710  119.0440 C   0  0  0  0  0  0  0  0  0  0  0  0
   92.7370  123.4590  119.4930 Cl  0  0  0  0  0  0  0  0  0  0  0  0
   95.2630  122.4580  119.4260 C   0  0  0  0  0  0  0  0  0  0  0  0
   96.5960  122.4730  119.0660 C   0  0  0  0  0  0  0  0  0  0  0  0
   99.2880  122.2570  118.2040 C   0  0  0  0  0  0  0  0  0  0  0  0
   99.5240  121.3280  117.0900 C   0  0  0  0  0  0  0  0  0  0  0  0
   93.4590  121.2520  115.8400 C   0  0  0  0  0  0  0  0  0  0  0  0
   93.0550  121.4020  114.5260 C   0  0  0  0  0  0  0  0  0  0  0  0
   91.7560  121.7470  114.2360 C   0  0  0  0  0  0  0  0  0  0  0  0
   90.8530  121.9420  115.2500 C   0  0  0  0  0  0  0  0  0  0  0  0
   89.5490  122.2880  115.0090 F   0  0  0  0  0  0  0  0  0  0  0  0
   91.2410  121.7950  116.5540 C   0  0  0  0  0  0  0  0  0  0  0  0
   92.5360  121.4530  116.8350 C   0  0  0  0  0  0  0  0  0  0  0  0
   95.8725  121.5837  114.4758 H   0  0  0  0  0  0  0  0  0  0  0  0
   96.0259  122.5790  116.0078 H   0  0  0  0  0  0  0  0  0  0  0  0
   97.5792  121.0723  116.9424 H   0  0  0  0  0  0  0  0  0  0  0  0
   97.3024  119.8551  115.6617 H   0  0  0  0  0  0  0  0  0  0  0  0
   98.6330  120.9177  114.2032 H   0  0  0  0  0  0  0  0  0  0  0  0
   97.9654  122.5433  114.6801 H   0  0  0  0  0  0  0  0  0  0  0  0
  100.3780  121.4590  115.1990 H   0  0  0  0  0  0  0  0  0  0  0  0
  100.7957  123.4530  116.4120 H   0  0  0  0  0  0  0  0  0  0  0  0
   99.9679  123.6708  114.8148 H   0  0  0  0  0  0  0  0  0  0  0  0
   98.9884  125.1153  116.5390 H   0  0  0  0  0  0  0  0  0  0  0  0
   97.8152  123.8917  115.9514 H   0  0  0  0  0  0  0  0  0  0  0  0
  100.1310  124.3860  118.7270 H   0  0  0  0  0  0  0  0  0  0  0  0
   96.6315  125.3316  117.3547 H   0  0  0  0  0  0  0  0  0  0  0  0
   94.2607  125.3225  117.9841 H   0  0  0  0  0  0  0  0  0  0  0  0
   94.8704  121.6237  120.0258 H   0  0  0  0  0  0  0  0  0  0  0  0
   97.2468  121.6460  119.3863 H   0  0  0  0  0  0  0  0  0  0  0  0
  100.2697  122.5159  118.6273 H   0  0  0  0  0  0  0  0  0  0  0  0
   98.6065  121.7134  118.8748 H   0  0  0  0  0  0  0  0  0  0  0  0
  100.4764  120.8130  117.2842 H   0  0  0  0  0  0  0  0  0  0  0  0
   98.6382  120.6762  117.0707 H   0  0  0  0  0  0  0  0  0  0  0  0
   93.7755  121.2447  113.7098 H   0  0  0  0  0  0  0  0  0  0  0  0
   91.4404  121.8668  113.1891 H   0  0  0  0  0  0  0  0  0  0  0  0
   90.5186  121.9503  117.3689 H   0  0  0  0  0  0  0  0  0  0  0  0
   92.8444  121.3364  117.8844 H   0  0  0  0  0  0  0  0  0  0  0  0
  1  2  2  0
  2  3  1  0
  3  4  1  0
  4  5  1  0
  5  6  1  0
  6  7  1  0
  7  8  1  0
  8  9  1  0
  9 10  1  0
  9 11  1  0
 11 12  2  0
 12 13  1  0
 13 14  2  0
 14 15  1  0
 14 16  1  0
 16 17  2  0
  9 18  1  0
 18 19  1  0
  2 20  1  0
 20 21  2  0
 21 22  1  0
 22 23  2  0
 23 24  1  0
 23 25  1  0
 25 26  2  0
 19  6  1  0
 26 20  1  0
 17 11  1  0
  3 27  1  0
  3 28  1  0
  4 29  1  0
  4 30  1  0
  5 31  1  0
  5 32  1  0
  6 33  1  0
  7 34  1  0
  7 35  1  0
  8 36  1  0
  8 37  1  0
 10 38  1  0
 12 39  1  0
 13 40  1  0
 16 41  1  0
 17 42  1  0
 18 43  1  0
 18 44  1  0
 19 45  1  0
 19 46  1  0
 21 47  1  0
 22 48  1  0
 25 49  1  0
 26 50  1  0
M  CHG  1   6   1
M  END
>  <meeko>  (1) 
{"is_sidechain": false}

$$$$
