
     RDKit          3D

 39 41  0  0  0  0  0  0  0  0999 V2000
    7.4060   -1.7120   -0.8740 C   0  0  0  0  0  0  0  0  0  0  0  0
    8.1880   -1.8600    0.3770 C   0  0  0  0  0  0  0  0  0  0  0  0
    9.5480   -2.1650    0.3160 C   0  0  0  0  0  0  0  0  0  0  0  0
   10.1380   -2.3090   -0.9290 O   0  0  0  0  0  0  0  0  0  0  0  0
   11.4000   -2.8830   -1.1060 C   0  0  0  0  0  0  0  0  0  0  0  0
   12.2410   -1.9050   -1.9020 C   0  0  0  0  0  0  0  0  0  0  0  0
   12.6730   -0.9260   -1.0240 F   0  0  0  0  0  0  0  0  0  0  0  0
   11.4980   -1.3140   -2.9030 F   0  0  0  0  0  0  0  0  0  0  0  0
   13.3510   -2.5270   -2.4330 F   0  0  0  0  0  0  0  0  0  0  0  0
   10.2280   -2.3050    1.5060 C   0  0  0  0  0  0  0  0  0  0  0  0
    9.5830   -2.1490    2.7080 C   0  0  0  0  0  0  0  0  0  0  0  0
    8.2880   -1.8580    2.7270 N   0  0  0  0  0  0  0  0  0  0  0  0
    7.5560   -1.7050    1.5890 C   0  0  0  0  0  0  0  0  0  0  0  0
    6.1100   -1.3610    1.7050 C   0  0  0  0  0  0  0  0  0  0  0  0
    5.9410    0.3250    1.9390 S   0  0  0  0  0  3  0  0  0  0  0  0
    6.8450    1.1010    3.0340 O   0  0  0  0  0  0  0  0  0  0  0  0
    5.0230    1.2340    0.8230 C   0  0  0  0  0  0  0  0  0  0  0  0
    3.8570    1.8830    0.9410 N   0  0  0  0  0  0  0  0  0  0  0  0
    3.5340    2.4530   -0.2320 C   0  0  0  0  0  0  0  0  0  0  0  0
    2.4590    3.2280   -0.6610 C   0  0  0  0  0  0  0  0  0  0  0  0
    2.3660    3.7010   -1.9450 C   0  0  0  0  0  0  0  0  0  0  0  0
    3.3670    3.4020   -2.8420 C   0  0  0  0  0  0  0  0  0  0  0  0
    4.4470    2.6360   -2.4530 C   0  0  0  0  0  0  0  0  0  0  0  0
    4.5230    2.1640   -1.1400 C   0  0  0  0  0  0  0  0  0  0  0  0
    5.4090    1.4250   -0.4690 N   0  0  0  0  0  2  0  0  0  0  0  0
    6.3529   -1.5127   -0.6267 H   0  0  0  0  0  0  0  0  0  0  0  0
    7.8095   -0.8743   -1.4617 H   0  0  0  0  0  0  0  0  0  0  0  0
    7.4755   -2.6392   -1.4617 H   0  0  0  0  0  0  0  0  0  0  0  0
   11.8674   -3.0702   -0.1280 H   0  0  0  0  0  0  0  0  0  0  0  0
   11.3168   -3.8425   -1.6374 H   0  0  0  0  0  0  0  0  0  0  0  0
   11.3015   -2.5448    1.4930 H   0  0  0  0  0  0  0  0  0  0  0  0
   10.1370   -2.2647    3.6512 H   0  0  0  0  0  0  0  0  0  0  0  0
    5.5877   -1.6573    0.7834 H   0  0  0  0  0  0  0  0  0  0  0  0
    5.6740   -1.8953    2.5620 H   0  0  0  0  0  0  0  0  0  0  0  0
    7.0270    2.0370    2.7260 H   0  0  0  0  0  0  0  0  0  0  0  0
    1.6582    3.4686    0.0537 H   0  0  0  0  0  0  0  0  0  0  0  0
    1.5040    4.3106   -2.2538 H   0  0  0  0  0  0  0  0  0  0  0  0
    3.3055    3.7759   -3.8747 H   0  0  0  0  0  0  0  0  0  0  0  0
    5.2440    2.3982   -3.1729 H   0  0  0  0  0  0  0  0  0  0  0  0
  1  2  1  0
  2  3  2  0
  3  4  1  0
  4  5  1  0
  5  6  1  0
  6  7  1  0
  6  8  1  0
  6  9  1  0
  3 10  1  0
 10 11  2  0
 11 12  1  0
 12 13  2  0
 13 14  1  0
 14 15  1  0
 15 16  1  0
 15 17  1  0
 17 18  2  0
 18 19  1  0
 19 20  2  0
 20 21  1  0
 21 22  2  0
 22 23  1  0
 23 24  2  0
 24 25  1  0
 13  2  1  0
 25 17  1  0
 24 19  1  0
  1 26  1  0
  1 27  1  0
  1 28  1  0
  5 29  1  0
  5 30  1  0
 10 31  1  0
 11 32  1  0
 14 33  1  0
 14 34  1  0
 16 35  1  0
 20 36  1  0
 21 37  1  0
 22 38  1  0
 23 39  1  0
M  CHG  2  15   1  25  -1
M  END
>  <meeko>  (1) 
{"is_sidechain": false}

$$$$
