
     RDKit          3D

 67 71  0  0  0  0  0  0  0  0999 V2000
  122.1100   64.9200  107.7200 O   0  0  0  0  0  0  0  0  0  0  0  0
  122.0700   65.2310  106.5120 C   0  0  0  0  0  0  0  0  0  0  0  0
  123.1760   65.6850  105.7720 N   0  0  0  0  0  0  0  0  0  0  0  0
  122.8470   65.4830  104.3970 C   0  0  0  0  0  0  0  0  0  0  0  0
  121.3840   65.6290  104.3550 N   0  0  0  0  0  0  0  0  0  0  0  0
  120.7320   66.1540  103.2100 C   0  0  0  0  0  0  0  0  0  0  0  0
  121.0450   67.4020  102.7250 C   0  0  0  0  0  0  0  0  0  0  0  0
  120.4240   67.9200  101.5850 C   0  0  0  0  0  0  0  0  0  0  0  0
  119.4800   67.1370  100.9550 C   0  0  0  0  0  0  0  0  0  0  0  0
  119.1760   65.8950  101.4480 C   0  0  0  0  0  0  0  0  0  0  0  0
  119.7960   65.4060  102.5640 C   0  0  0  0  0  0  0  0  0  0  0  0
  120.8410   65.1760  105.6330 C   0  0  0  0  0  0  0  0  0  0  0  0
  119.8050   66.1330  106.1880 C   0  0  0  0  0  0  0  0  0  0  0  0
  119.2920   65.6700  107.5310 C   0  0  0  0  0  0  0  0  0  0  0  0
  118.9540   64.2620  107.5320 N   0  0  0  0  0  4  0  0  0  0  0  0
  117.7190   63.9890  108.2580 C   0  0  0  0  0  0  0  0  0  0  0  0
  116.6410   64.9340  107.8180 C   0  0  0  0  0  0  0  0  0  0  0  0
  115.2830   64.6740  108.3080 C   0  0  0  0  0  0  0  0  0  0  0  0
  114.4070   63.6730  107.7150 C   0  0  0  0  0  0  0  0  0  0  0  0
  112.9680   63.7200  108.1580 C   0  0  0  0  0  0  0  0  0  0  0  0
  112.2440   62.5560  108.0290 C   0  0  0  0  0  0  0  0  0  0  0  0
  110.9200   62.5250  108.3880 C   0  0  0  0  0  0  0  0  0  0  0  0
  110.3040   63.6530  108.8810 C   0  0  0  0  0  0  0  0  0  0  0  0
  108.9940   63.6100  109.2330 F   0  0  0  0  0  0  0  0  0  0  0  0
  111.0620   64.8230  109.0020 C   0  0  0  0  0  0  0  0  0  0  0  0
  112.3830   64.8590  108.6440 C   0  0  0  0  0  0  0  0  0  0  0  0
  114.4980   63.3480  106.3010 C   0  0  0  0  0  0  0  0  0  0  0  0
  115.0730   62.2370  105.7520 C   0  0  0  0  0  0  0  0  0  0  0  0
  115.0860   62.0990  104.3590 C   0  0  0  0  0  0  0  0  0  0  0  0
  114.5340   63.0520  103.5400 C   0  0  0  0  0  0  0  0  0  0  0  0
  114.5310   62.9420  102.1840 F   0  0  0  0  0  0  0  0  0  0  0  0
  113.9500   64.1750  104.0790 C   0  0  0  0  0  0  0  0  0  0  0  0
  113.9460   64.2980  105.4310 C   0  0  0  0  0  0  0  0  0  0  0  0
  118.9840   63.6940  106.2100 C   0  0  0  0  0  0  0  0  0  0  0  0
  120.3550   63.7710  105.6220 C   0  0  0  0  0  0  0  0  0  0  0  0
  124.0620   66.0910  106.1790 H   0  0  0  0  0  0  0  0  0  0  0  0
  123.3336   66.2393  103.7635 H   0  0  0  0  0  0  0  0  0  0  0  0
  123.1856   64.5066  104.0201 H   0  0  0  0  0  0  0  0  0  0  0  0
  121.8017   68.0067  103.2463 H   0  0  0  0  0  0  0  0  0  0  0  0
  120.6799   68.9193  101.2030 H   0  0  0  0  0  0  0  0  0  0  0  0
  118.9698   67.5101  100.0547 H   0  0  0  0  0  0  0  0  0  0  0  0
  118.4200   65.2808  100.9369 H   0  0  0  0  0  0  0  0  0  0  0  0
  119.5378   64.4054  102.9410 H   0  0  0  0  0  0  0  0  0  0  0  0
  120.2610   67.1275  106.3023 H   0  0  0  0  0  0  0  0  0  0  0  0
  118.9577   66.1709  105.4876 H   0  0  0  0  0  0  0  0  0  0  0  0
  120.0701   65.8480  108.2879 H   0  0  0  0  0  0  0  0  0  0  0  0
  118.3767   66.2370  107.7565 H   0  0  0  0  0  0  0  0  0  0  0  0
  119.6890   63.7760  108.0920 H   0  0  0  0  0  0  0  0  0  0  0  0
  117.4004   62.9554  108.0576 H   0  0  0  0  0  0  0  0  0  0  0  0
  117.8979   64.1243  109.3349 H   0  0  0  0  0  0  0  0  0  0  0  0
  116.9269   65.9419  108.1533 H   0  0  0  0  0  0  0  0  0  0  0  0
  116.5790   64.8066  106.7272 H   0  0  0  0  0  0  0  0  0  0  0  0
  115.3903   64.3948  109.3666 H   0  0  0  0  0  0  0  0  0  0  0  0
  114.7675   65.6074  108.0378 H   0  0  0  0  0  0  0  0  0  0  0  0
  114.9113   62.8158  108.1850 H   0  0  0  0  0  0  0  0  0  0  0  0
  112.7279   61.6491  107.6374 H   0  0  0  0  0  0  0  0  0  0  0  0
  110.3468   61.5922  108.2811 H   0  0  0  0  0  0  0  0  0  0  0  0
  110.5859   65.7341  109.3935 H   0  0  0  0  0  0  0  0  0  0  0  0
  112.9647   65.7871  108.7450 H   0  0  0  0  0  0  0  0  0  0  0  0
  115.5187   61.4632  106.3943 H   0  0  0  0  0  0  0  0  0  0  0  0
  115.5487   61.2073  103.9110 H   0  0  0  0  0  0  0  0  0  0  0  0
  113.5016   64.9470  103.4364 H   0  0  0  0  0  0  0  0  0  0  0  0
  113.4830   65.1947  105.8687 H   0  0  0  0  0  0  0  0  0  0  0  0
  118.6755   62.6396  106.2650 H   0  0  0  0  0  0  0  0  0  0  0  0
  118.2965   64.2653  105.5689 H   0  0  0  0  0  0  0  0  0  0  0  0
  121.0395   63.1452  106.2135 H   0  0  0  0  0  0  0  0  0  0  0  0
  120.3203   63.4117  104.5829 H   0  0  0  0  0  0  0  0  0  0  0  0
  1  2  2  0
  2  3  1  0
  3  4  1  0
  4  5  1  0
  5  6  1  0
  6  7  2  0
  7  8  1  0
  8  9  2  0
  9 10  1  0
 10 11  2  0
  5 12  1  0
 12 13  1  0
 13 14  1  0
 14 15  1  0
 15 16  1  0
 16 17  1  0
 17 18  1  0
 18 19  1  0
 19 20  1  0
 20 21  2  0
 21 22  1  0
 22 23  2  0
 23 24  1  0
 23 25  1  0
 25 26  2  0
 19 27  1  0
 27 28  2  0
 28 29  1  0
 29 30  2  0
 30 31  1  0
 30 32  1  0
 32 33  2  0
 15 34  1  0
 34 35  1  0
 12  2  1  0
 26 20  1  0
 33 27  1  0
 11  6  1  0
 35 12  1  0
  3 36  1  0
  4 37  1  0
  4 38  1  0
  7 39  1  0
  8 40  1  0
  9 41  1  0
 10 42  1  0
 11 43  1  0
 13 44  1  0
 13 45  1  0
 14 46  1  0
 14 47  1  0
 15 48  1  0
 16 49  1  0
 16 50  1  0
 17 51  1  0
 17 52  1  0
 18 53  1  0
 18 54  1  0
 19 55  1  0
 21 56  1  0
 22 57  1  0
 25 58  1  0
 26 59  1  0
 28 60  1  0
 29 61  1  0
 32 62  1  0
 33 63  1  0
 34 64  1  0
 34 65  1  0
 35 66  1  0
 35 67  1  0
M  CHG  1  15   1
M  END
>  <meeko>  (1) 
{"is_sidechain": false}

$$$$
