
     RDKit          3D

 50 52  0  0  0  0  0  0  0  0999 V2000
  129.3630  137.6880  159.6460 O   0  0  0  0  0  0  0  0  0  0  0  0
  128.9990  136.8060  158.8260 C   0  0  0  0  0  0  0  0  0  0  0  0
  128.3460  135.5720  159.2690 C   0  0  0  0  0  0  0  0  0  0  0  0
  127.4940  135.7300  160.5090 C   0  0  0  0  0  0  0  0  0  0  0  0
  127.0320  134.3790  160.9380 C   0  0  0  0  0  0  0  0  0  0  0  0
  125.5960  134.1950  160.7690 N   0  0  0  0  0  4  0  0  0  0  0  0
  125.2780  132.9860  160.0720 C   0  0  0  0  0  0  0  0  0  0  0  0
  125.7930  131.7750  160.8010 C   0  0  0  0  0  0  0  0  0  0  0  0
  125.1650  131.7140  162.1610 C   0  0  0  0  0  0  0  0  0  0  0  0
  124.1800  130.6980  162.0890 O   0  0  0  0  0  0  0  0  0  0  0  0
  126.1380  131.2070  163.1920 C   0  0  0  0  0  0  0  0  0  0  0  0
  127.3380  131.8410  163.4400 C   0  0  0  0  0  0  0  0  0  0  0  0
  128.2540  131.4100  164.3720 C   0  0  0  0  0  0  0  0  0  0  0  0
  127.9780  130.2950  165.1010 C   0  0  0  0  0  0  0  0  0  0  0  0
  129.1270  129.7320  166.2910 Cl  0  0  0  0  0  0  0  0  0  0  0  0
  126.8000  129.6310  164.8910 C   0  0  0  0  0  0  0  0  0  0  0  0
  125.8950  130.0830  163.9500 C   0  0  0  0  0  0  0  0  0  0  0  0
  124.4740  132.9560  162.5890 C   0  0  0  0  0  0  0  0  0  0  0  0
  124.9440  134.2350  162.0380 C   0  0  0  0  0  0  0  0  0  0  0  0
  129.2700  137.0900  157.4010 C   0  0  0  0  0  0  0  0  0  0  0  0
  128.3550  136.7340  156.4270 C   0  0  0  0  0  0  0  0  0  0  0  0
  128.6130  137.0010  155.1040 C   0  0  0  0  0  0  0  0  0  0  0  0
  129.7810  137.6240  154.7420 C   0  0  0  0  0  0  0  0  0  0  0  0
  130.0820  137.9080  153.4350 F   0  0  0  0  0  0  0  0  0  0  0  0
  130.6940  137.9810  155.6960 C   0  0  0  0  0  0  0  0  0  0  0  0
  130.4290  137.7120  157.0130 C   0  0  0  0  0  0  0  0  0  0  0  0
  127.7032  135.2101  158.4530 H   0  0  0  0  0  0  0  0  0  0  0  0
  129.1487  134.8651  159.5259 H   0  0  0  0  0  0  0  0  0  0  0  0
  128.0880  136.1916  161.3115 H   0  0  0  0  0  0  0  0  0  0  0  0
  126.6289  136.3744  160.2935 H   0  0  0  0  0  0  0  0  0  0  0  0
  127.5568  133.6208  160.3382 H   0  0  0  0  0  0  0  0  0  0  0  0
  127.2559  134.2765  162.0101 H   0  0  0  0  0  0  0  0  0  0  0  0
  125.2970  134.9940  160.1350 H   0  0  0  0  0  0  0  0  0  0  0  0
  124.1851  132.9065  159.9753 H   0  0  0  0  0  0  0  0  0  0  0  0
  125.7582  133.0224  159.0830 H   0  0  0  0  0  0  0  0  0  0  0  0
  125.5345  130.8676  160.2354 H   0  0  0  0  0  0  0  0  0  0  0  0
  126.8864  131.8415  160.9015 H   0  0  0  0  0  0  0  0  0  0  0  0
  124.2460  130.1810  162.9300 H   0  0  0  0  0  0  0  0  0  0  0  0
  127.5765  132.7439  162.8587 H   0  0  0  0  0  0  0  0  0  0  0  0
  129.1950  131.9586  164.5253 H   0  0  0  0  0  0  0  0  0  0  0  0
  126.5714  128.7286  165.4771 H   0  0  0  0  0  0  0  0  0  0  0  0
  124.9554  129.5305  163.8022 H   0  0  0  0  0  0  0  0  0  0  0  0
  123.4142  132.8515  162.3136 H   0  0  0  0  0  0  0  0  0  0  0  0
  124.6841  133.0285  163.6663 H   0  0  0  0  0  0  0  0  0  0  0  0
  124.0697  134.8954  161.9408 H   0  0  0  0  0  0  0  0  0  0  0  0
  125.7134  134.5834  162.7428 H   0  0  0  0  0  0  0  0  0  0  0  0
  127.4171  136.2352  156.7125 H   0  0  0  0  0  0  0  0  0  0  0  0
  127.8819  136.7148  154.3336 H   0  0  0  0  0  0  0  0  0  0  0  0
  131.6317  138.4791  155.4086 H   0  0  0  0  0  0  0  0  0  0  0  0
  131.1641  138.0021  157.7781 H   0  0  0  0  0  0  0  0  0  0  0  0
  1  2  2  0
  2  3  1  0
  3  4  1  0
  4  5  1  0
  5  6  1  0
  6  7  1  0
  7  8  1  0
  8  9  1  0
  9 10  1  0
  9 11  1  0
 11 12  2  0
 12 13  1  0
 13 14  2  0
 14 15  1  0
 14 16  1  0
 16 17  2  0
  9 18  1  0
 18 19  1  0
  2 20  1  0
 20 21  2  0
 21 22  1  0
 22 23  2  0
 23 24  1  0
 23 25  1  0
 25 26  2  0
 19  6  1  0
 26 20  1  0
 17 11  1  0
  3 27  1  0
  3 28  1  0
  4 29  1  0
  4 30  1  0
  5 31  1  0
  5 32  1  0
  6 33  1  0
  7 34  1  0
  7 35  1  0
  8 36  1  0
  8 37  1  0
 10 38  1  0
 12 39  1  0
 13 40  1  0
 16 41  1  0
 17 42  1  0
 18 43  1  0
 18 44  1  0
 19 45  1  0
 19 46  1  0
 21 47  1  0
 22 48  1  0
 25 49  1  0
 26 50  1  0
M  CHG  1   6   1
M  END
>  <meeko>  (1) 
{"is_sidechain": false}

$$$$
