
     RDKit          3D

 67 71  0  0  0  0  0  0  0  0999 V2000
  -17.5450   11.2360  -40.1860 O   0  0  0  0  0  0  0  0  0  0  0  0
  -17.7820   11.4020  -38.9720 C   0  0  0  0  0  0  0  0  0  0  0  0
  -18.8820   10.8460  -38.2950 N   0  0  0  0  0  0  0  0  0  0  0  0
  -18.5500   10.8700  -36.9060 C   0  0  0  0  0  0  0  0  0  0  0  0
  -17.6780   12.0470  -36.7690 N   0  0  0  0  0  0  0  0  0  0  0  0
  -17.6620   12.8120  -35.5750 C   0  0  0  0  0  0  0  0  0  0  0  0
  -18.4000   13.9660  -35.4620 C   0  0  0  0  0  0  0  0  0  0  0  0
  -18.4080   14.7180  -34.2830 C   0  0  0  0  0  0  0  0  0  0  0  0
  -17.6470   14.2630  -33.2260 C   0  0  0  0  0  0  0  0  0  0  0  0
  -16.9150   13.1110  -33.3510 C   0  0  0  0  0  0  0  0  0  0  0  0
  -16.9220   12.3910  -34.5130 C   0  0  0  0  0  0  0  0  0  0  0  0
  -16.9420   12.2210  -38.0190 C   0  0  0  0  0  0  0  0  0  0  0  0
  -16.9410   13.6620  -38.4880 C   0  0  0  0  0  0  0  0  0  0  0  0
  -16.2150   13.8110  -39.8050 C   0  0  0  0  0  0  0  0  0  0  0  0
  -14.9450   13.1150  -39.8120 N   0  0  0  0  0  4  0  0  0  0  0  0
  -13.8940   13.8870  -40.4630 C   0  0  0  0  0  0  0  0  0  0  0  0
  -13.3350   14.9050  -39.5120 C   0  0  0  0  0  0  0  0  0  0  0  0
  -13.0510   16.2390  -40.0520 C   0  0  0  0  0  0  0  0  0  0  0  0
  -12.2950   16.4500  -41.2790 C   0  0  0  0  0  0  0  0  0  0  0  0
  -12.5610   17.7490  -41.9930 C   0  0  0  0  0  0  0  0  0  0  0  0
  -13.3220   18.6790  -41.3190 C   0  0  0  0  0  0  0  0  0  0  0  0
  -13.6280   19.8780  -41.9110 C   0  0  0  0  0  0  0  0  0  0  0  0
  -13.1810   20.1650  -43.1800 C   0  0  0  0  0  0  0  0  0  0  0  0
  -13.4910   21.3540  -43.7550 F   0  0  0  0  0  0  0  0  0  0  0  0
  -12.4100   19.2030  -43.8440 C   0  0  0  0  0  0  0  0  0  0  0  0
  -12.1030   18.0050  -43.2570 C   0  0  0  0  0  0  0  0  0  0  0  0
  -10.8860   16.1020  -41.3550 C   0  0  0  0  0  0  0  0  0  0  0  0
  -10.3270   15.1110  -42.1130 C   0  0  0  0  0  0  0  0  0  0  0  0
   -8.9440   14.9060  -42.0450 C   0  0  0  0  0  0  0  0  0  0  0  0
   -8.1440   15.6760  -41.2380 C   0  0  0  0  0  0  0  0  0  0  0  0
   -6.7980   15.4980  -41.1550 F   0  0  0  0  0  0  0  0  0  0  0  0
   -8.6930   16.6770  -40.4720 C   0  0  0  0  0  0  0  0  0  0  0  0
  -10.0360   16.8660  -40.5450 C   0  0  0  0  0  0  0  0  0  0  0  0
  -14.5820   12.6320  -38.5050 C   0  0  0  0  0  0  0  0  0  0  0  0
  -15.5750   11.6360  -38.0040 C   0  0  0  0  0  0  0  0  0  0  0  0
  -19.7650   10.4870  -38.7490 H   0  0  0  0  0  0  0  0  0  0  0  0
  -19.4545   10.9795  -36.2896 H   0  0  0  0  0  0  0  0  0  0  0  0
  -18.0643    9.9418  -36.5706 H   0  0  0  0  0  0  0  0  0  0  0  0
  -18.9988   14.3063  -36.3197 H   0  0  0  0  0  0  0  0  0  0  0  0
  -19.0009   15.6409  -34.2011 H   0  0  0  0  0  0  0  0  0  0  0  0
  -17.6277   14.8259  -32.2811 H   0  0  0  0  0  0  0  0  0  0  0  0
  -16.3112   12.7596  -32.5013 H   0  0  0  0  0  0  0  0  0  0  0  0
  -16.3278   11.4685  -34.5900 H   0  0  0  0  0  0  0  0  0  0  0  0
  -17.9807   13.9991  -38.6120 H   0  0  0  0  0  0  0  0  0  0  0  0
  -16.4211   14.2717  -37.7344 H   0  0  0  0  0  0  0  0  0  0  0  0
  -16.8476   13.4016  -40.6064 H   0  0  0  0  0  0  0  0  0  0  0  0
  -16.0141   14.8813  -39.9604 H   0  0  0  0  0  0  0  0  0  0  0  0
  -15.0630   12.2790  -40.4260 H   0  0  0  0  0  0  0  0  0  0  0  0
  -13.0897   13.2083  -40.7831 H   0  0  0  0  0  0  0  0  0  0  0  0
  -14.3172   14.4052  -41.3361 H   0  0  0  0  0  0  0  0  0  0  0  0
  -14.0594   15.0263  -38.6931 H   0  0  0  0  0  0  0  0  0  0  0  0
  -12.3553   14.5054  -39.2110 H   0  0  0  0  0  0  0  0  0  0  0  0
  -14.0289   16.7166  -40.2118 H   0  0  0  0  0  0  0  0  0  0  0  0
  -12.3624   16.6426  -39.2951 H   0  0  0  0  0  0  0  0  0  0  0  0
  -12.7692   15.6219  -41.8261 H   0  0  0  0  0  0  0  0  0  0  0  0
  -13.6849   18.4596  -40.3041 H   0  0  0  0  0  0  0  0  0  0  0  0
  -14.2357   20.6159  -41.3667 H   0  0  0  0  0  0  0  0  0  0  0  0
  -12.0431   19.4145  -44.8592 H   0  0  0  0  0  0  0  0  0  0  0  0
  -11.4974   17.2595  -43.7931 H   0  0  0  0  0  0  0  0  0  0  0  0
  -10.9536   14.4852  -42.7654 H   0  0  0  0  0  0  0  0  0  0  0  0
   -8.4880   14.1099  -42.6519 H   0  0  0  0  0  0  0  0  0  0  0  0
   -8.0654   17.3040  -39.8216 H   0  0  0  0  0  0  0  0  0  0  0  0
  -10.4815   17.6643  -39.9333 H   0  0  0  0  0  0  0  0  0  0  0  0
  -13.5921   12.1555  -38.5605 H   0  0  0  0  0  0  0  0  0  0  0  0
  -14.5627   13.4850  -37.8107 H   0  0  0  0  0  0  0  0  0  0  0  0
  -15.5538   10.7456  -38.6495 H   0  0  0  0  0  0  0  0  0  0  0  0
  -15.3150   11.3581  -36.9719 H   0  0  0  0  0  0  0  0  0  0  0  0
  1  2  2  0
  2  3  1  0
  3  4  1  0
  4  5  1  0
  5  6  1  0
  6  7  2  0
  7  8  1  0
  8  9  2  0
  9 10  1  0
 10 11  2  0
  5 12  1  0
 12 13  1  0
 13 14  1  0
 14 15  1  0
 15 16  1  0
 16 17  1  0
 17 18  1  0
 18 19  1  0
 19 20  1  0
 20 21  2  0
 21 22  1  0
 22 23  2  0
 23 24  1  0
 23 25  1  0
 25 26  2  0
 19 27  1  0
 27 28  2  0
 28 29  1  0
 29 30  2  0
 30 31  1  0
 30 32  1  0
 32 33  2  0
 15 34  1  0
 34 35  1  0
 12  2  1  0
 26 20  1  0
 33 27  1  0
 11  6  1  0
 35 12  1  0
  3 36  1  0
  4 37  1  0
  4 38  1  0
  7 39  1  0
  8 40  1  0
  9 41  1  0
 10 42  1  0
 11 43  1  0
 13 44  1  0
 13 45  1  0
 14 46  1  0
 14 47  1  0
 15 48  1  0
 16 49  1  0
 16 50  1  0
 17 51  1  0
 17 52  1  0
 18 53  1  0
 18 54  1  0
 19 55  1  0
 21 56  1  0
 22 57  1  0
 25 58  1  0
 26 59  1  0
 28 60  1  0
 29 61  1  0
 32 62  1  0
 33 63  1  0
 34 64  1  0
 34 65  1  0
 35 66  1  0
 35 67  1  0
M  CHG  1  15   1
M  END
>  <meeko>  (1) 
{"is_sidechain": false}

$$$$
