
     RDKit          3D

 50 52  0  0  0  0  0  0  0  0999 V2000
  -12.6440   21.0310  -18.0930 O   0  0  0  0  0  0  0  0  0  0  0  0
  -12.8120   20.8580  -16.8580 C   0  0  0  0  0  0  0  0  0  0  0  0
  -13.9630   20.1160  -16.3390 C   0  0  0  0  0  0  0  0  0  0  0  0
  -15.0440   19.8490  -17.3630 C   0  0  0  0  0  0  0  0  0  0  0  0
  -15.2090   18.3740  -17.4990 C   0  0  0  0  0  0  0  0  0  0  0  0
  -16.6020   17.9530  -17.4130 N   0  0  0  0  0  4  0  0  0  0  0  0
  -16.8060   16.6310  -17.9240 C   0  0  0  0  0  0  0  0  0  0  0  0
  -15.9930   15.6150  -17.1690 C   0  0  0  0  0  0  0  0  0  0  0  0
  -16.4000   15.6310  -15.7260 C   0  0  0  0  0  0  0  0  0  0  0  0
  -17.1970   14.4750  -15.5350 O   0  0  0  0  0  0  0  0  0  0  0  0
  -15.2160   15.4120  -14.8210 C   0  0  0  0  0  0  0  0  0  0  0  0
  -15.1280   14.3200  -13.9820 C   0  0  0  0  0  0  0  0  0  0  0  0
  -14.0650   14.0840  -13.1400 C   0  0  0  0  0  0  0  0  0  0  0  0
  -13.0320   14.9690  -13.1200 C   0  0  0  0  0  0  0  0  0  0  0  0
  -11.6720   14.6870  -12.0600 Cl  0  0  0  0  0  0  0  0  0  0  0  0
  -13.0740   16.0680  -13.9350 C   0  0  0  0  0  0  0  0  0  0  0  0
  -14.1510   16.2840  -14.7720 C   0  0  0  0  0  0  0  0  0  0  0  0
  -17.2240   16.7960  -15.3200 C   0  0  0  0  0  0  0  0  0  0  0  0
  -17.0620   18.0520  -16.0660 C   0  0  0  0  0  0  0  0  0  0  0  0
  -11.7860   21.4480  -15.9730 C   0  0  0  0  0  0  0  0  0  0  0  0
  -11.1700   20.6790  -15.0020 C   0  0  0  0  0  0  0  0  0  0  0  0
  -10.2170   21.2330  -14.1820 C   0  0  0  0  0  0  0  0  0  0  0  0
   -9.8700   22.5530  -14.3230 C   0  0  0  0  0  0  0  0  0  0  0  0
   -8.9260   23.1480  -13.5260 F   0  0  0  0  0  0  0  0  0  0  0  0
  -10.4720   23.3240  -15.2800 C   0  0  0  0  0  0  0  0  0  0  0  0
  -11.4210   22.7640  -16.0930 C   0  0  0  0  0  0  0  0  0  0  0  0
  -13.6052   19.1491  -15.9555 H   0  0  0  0  0  0  0  0  0  0  0  0
  -14.4167   20.7439  -15.5580 H   0  0  0  0  0  0  0  0  0  0  0  0
  -15.9906   20.2996  -17.0300 H   0  0  0  0  0  0  0  0  0  0  0  0
  -14.7641   20.2890  -18.3316 H   0  0  0  0  0  0  0  0  0  0  0  0
  -14.8072   18.0635  -18.4748 H   0  0  0  0  0  0  0  0  0  0  0  0
  -14.6672   17.9011  -16.6666 H   0  0  0  0  0  0  0  0  0  0  0  0
  -17.1210   18.6100  -18.0670 H   0  0  0  0  0  0  0  0  0  0  0  0
  -17.8717   16.3738  -17.8341 H   0  0  0  0  0  0  0  0  0  0  0  0
  -16.4860   16.6152  -18.9763 H   0  0  0  0  0  0  0  0  0  0  0  0
  -16.1712   14.6146  -17.5904 H   0  0  0  0  0  0  0  0  0  0  0  0
  -14.9241   15.8602  -17.2540 H   0  0  0  0  0  0  0  0  0  0  0  0
  -16.8120   13.9920  -14.7610 H   0  0  0  0  0  0  0  0  0  0  0  0
  -15.9558   13.5957  -13.9863 H   0  0  0  0  0  0  0  0  0  0  0  0
  -14.0510   13.1941  -12.4936 H   0  0  0  0  0  0  0  0  0  0  0  0
  -12.2412   16.7866  -13.9231 H   0  0  0  0  0  0  0  0  0  0  0  0
  -14.1585   17.1756  -15.4162 H   0  0  0  0  0  0  0  0  0  0  0  0
  -18.2788   16.4969  -15.4090 H   0  0  0  0  0  0  0  0  0  0  0  0
  -16.8782   17.0349  -14.3035 H   0  0  0  0  0  0  0  0  0  0  0  0
  -18.0405   18.5541  -16.0860 H   0  0  0  0  0  0  0  0  0  0  0  0
  -16.2696   18.5989  -15.5340 H   0  0  0  0  0  0  0  0  0  0  0  0
  -11.4442   19.6201  -14.8860 H   0  0  0  0  0  0  0  0  0  0  0  0
   -9.7312   20.6171  -13.4109 H   0  0  0  0  0  0  0  0  0  0  0  0
  -10.1964   24.3827  -15.3950 H   0  0  0  0  0  0  0  0  0  0  0  0
  -11.9027   23.3859  -16.8619 H   0  0  0  0  0  0  0  0  0  0  0  0
  1  2  2  0
  2  3  1  0
  3  4  1  0
  4  5  1  0
  5  6  1  0
  6  7  1  0
  7  8  1  0
  8  9  1  0
  9 10  1  0
  9 11  1  0
 11 12  2  0
 12 13  1  0
 13 14  2  0
 14 15  1  0
 14 16  1  0
 16 17  2  0
  9 18  1  0
 18 19  1  0
  2 20  1  0
 20 21  2  0
 21 22  1  0
 22 23  2  0
 23 24  1  0
 23 25  1  0
 25 26  2  0
 19  6  1  0
 26 20  1  0
 17 11  1  0
  3 27  1  0
  3 28  1  0
  4 29  1  0
  4 30  1  0
  5 31  1  0
  5 32  1  0
  6 33  1  0
  7 34  1  0
  7 35  1  0
  8 36  1  0
  8 37  1  0
 10 38  1  0
 12 39  1  0
 13 40  1  0
 16 41  1  0
 17 42  1  0
 18 43  1  0
 18 44  1  0
 19 45  1  0
 19 46  1  0
 21 47  1  0
 22 48  1  0
 25 49  1  0
 26 50  1  0
M  CHG  1   6   1
M  END
>  <meeko>  (1) 
{"is_sidechain": false}

$$$$
