
     RDKit          3D

 50 52  0  0  0  0  0  0  0  0999 V2000
  128.5540  120.2680  120.2000 O   0  0  0  0  0  0  0  0  0  0  0  0
  129.3010  121.1550  120.6880 C   0  0  0  0  0  0  0  0  0  0  0  0
  130.6860  121.3180  120.2430 C   0  0  0  0  0  0  0  0  0  0  0  0
  130.9750  120.7350  118.8780 C   0  0  0  0  0  0  0  0  0  0  0  0
  130.7380  121.7920  117.8550 C   0  0  0  0  0  0  0  0  0  0  0  0
  129.6790  121.4420  116.9180 N   0  0  0  0  0  4  0  0  0  0  0  0
  128.4600  122.1450  117.1820 C   0  0  0  0  0  0  0  0  0  0  0  0
  128.6510  123.6350  117.0920 C   0  0  0  0  0  0  0  0  0  0  0  0
  129.1100  123.9900  115.7090 C   0  0  0  0  0  0  0  0  0  0  0  0
  127.9830  124.5450  115.0560 O   0  0  0  0  0  0  0  0  0  0  0  0
  130.1080  125.1180  115.7360 C   0  0  0  0  0  0  0  0  0  0  0  0
  131.4600  124.8960  115.9030 C   0  0  0  0  0  0  0  0  0  0  0  0
  132.4030  125.8970  115.9340 C   0  0  0  0  0  0  0  0  0  0  0  0
  131.9980  127.1880  115.7940 C   0  0  0  0  0  0  0  0  0  0  0  0
  133.1800  128.4740  115.8290 Cl  0  0  0  0  0  0  0  0  0  0  0  0
  130.6670  127.4590  115.6260 C   0  0  0  0  0  0  0  0  0  0  0  0
  129.7390  126.4380  115.5970 C   0  0  0  0  0  0  0  0  0  0  0  0
  129.5660  122.8430  114.8850 C   0  0  0  0  0  0  0  0  0  0  0  0
  130.1140  121.6680  115.5780 C   0  0  0  0  0  0  0  0  0  0  0  0
  128.6970  122.0120  121.7300 C   0  0  0  0  0  0  0  0  0  0  0  0
  128.5790  121.5590  123.0310 C   0  0  0  0  0  0  0  0  0  0  0  0
  128.0160  122.3610  123.9950 C   0  0  0  0  0  0  0  0  0  0  0  0
  127.5700  123.6170  123.6710 C   0  0  0  0  0  0  0  0  0  0  0  0
  127.0010  124.4510  124.5980 F   0  0  0  0  0  0  0  0  0  0  0  0
  127.6820  124.0770  122.3870 C   0  0  0  0  0  0  0  0  0  0  0  0
  128.2430  123.2720  121.4330 C   0  0  0  0  0  0  0  0  0  0  0  0
  130.9137  122.3938  120.2131 H   0  0  0  0  0  0  0  0  0  0  0  0
  131.3134  120.7673  120.9594 H   0  0  0  0  0  0  0  0  0  0  0  0
  132.0219  120.4006  118.8310 H   0  0  0  0  0  0  0  0  0  0  0  0
  130.3191  119.8724  118.6890 H   0  0  0  0  0  0  0  0  0  0  0  0
  130.4586  122.7231  118.3697 H   0  0  0  0  0  0  0  0  0  0  0  0
  131.6668  121.9086  117.2773 H   0  0  0  0  0  0  0  0  0  0  0  0
  129.4800  120.4150  117.1100 H   0  0  0  0  0  0  0  0  0  0  0  0
  127.7031  121.8367  116.4457 H   0  0  0  0  0  0  0  0  0  0  0  0
  128.1353  121.9002  118.2041 H   0  0  0  0  0  0  0  0  0  0  0  0
  127.6982  124.1417  117.3050 H   0  0  0  0  0  0  0  0  0  0  0  0
  129.4049  123.9562  117.8258 H   0  0  0  0  0  0  0  0  0  0  0  0
  128.1320  124.4270  114.0850 H   0  0  0  0  0  0  0  0  0  0  0  0
  131.8037  123.8574  116.0181 H   0  0  0  0  0  0  0  0  0  0  0  0
  133.4679  125.6572  116.0699 H   0  0  0  0  0  0  0  0  0  0  0  0
  130.3336  128.5011  115.5130 H   0  0  0  0  0  0  0  0  0  0  0  0
  128.6759  126.6848  115.4592 H   0  0  0  0  0  0  0  0  0  0  0  0
  128.7030  122.5012  114.2947 H   0  0  0  0  0  0  0  0  0  0  0  0
  130.4136  123.2404  114.3074 H   0  0  0  0  0  0  0  0  0  0  0  0
  129.8444  120.7797  114.9879 H   0  0  0  0  0  0  0  0  0  0  0  0
  131.1936  121.8630  115.6584 H   0  0  0  0  0  0  0  0  0  0  0  0
  128.9370  120.5531  123.2956 H   0  0  0  0  0  0  0  0  0  0  0  0
  127.9230  121.9949  125.0281 H   0  0  0  0  0  0  0  0  0  0  0  0
  127.3247  125.0837  122.1244 H   0  0  0  0  0  0  0  0  0  0  0  0
  128.3321  123.6447  120.4019 H   0  0  0  0  0  0  0  0  0  0  0  0
  1  2  2  0
  2  3  1  0
  3  4  1  0
  4  5  1  0
  5  6  1  0
  6  7  1  0
  7  8  1  0
  8  9  1  0
  9 10  1  0
  9 11  1  0
 11 12  2  0
 12 13  1  0
 13 14  2  0
 14 15  1  0
 14 16  1  0
 16 17  2  0
  9 18  1  0
 18 19  1  0
  2 20  1  0
 20 21  2  0
 21 22  1  0
 22 23  2  0
 23 24  1  0
 23 25  1  0
 25 26  2  0
 19  6  1  0
 26 20  1  0
 17 11  1  0
  3 27  1  0
  3 28  1  0
  4 29  1  0
  4 30  1  0
  5 31  1  0
  5 32  1  0
  6 33  1  0
  7 34  1  0
  7 35  1  0
  8 36  1  0
  8 37  1  0
 10 38  1  0
 12 39  1  0
 13 40  1  0
 16 41  1  0
 17 42  1  0
 18 43  1  0
 18 44  1  0
 19 45  1  0
 19 46  1  0
 21 47  1  0
 22 48  1  0
 25 49  1  0
 26 50  1  0
M  CHG  1   6   1
M  END
>  <meeko>  (1) 
{"is_sidechain": false}

$$$$
