
     RDKit          3D

 34 35  0  0  0  0  0  0  0  0999 V2000
  146.5790  167.7860  161.3800 N   0  0  0  0  0  0  0  0  0  0  0  0
  147.6740  167.2300  162.1040 C   0  0  0  0  0  0  0  0  0  0  0  0
  147.5260  166.6750  163.3180 N   0  0  0  0  0  0  0  0  0  0  0  0
  148.6170  166.1600  163.9570 C   0  0  0  0  0  0  0  0  0  0  0  0
  148.5200  165.5660  165.2340 N   0  0  0  0  0  0  0  0  0  0  0  0
  149.8610  166.2020  163.3780 C   0  0  0  0  0  0  0  0  0  0  0  0
  151.0340  165.6470  164.0680 C   0  0  0  0  0  0  0  0  0  0  0  0
  151.2720  166.0530  165.2190 O   0  0  0  0  0  0  0  0  0  0  0  0
  151.8720  164.6930  163.4660 N   0  0  0  0  0  0  0  0  0  0  0  0
  153.0140  164.1180  164.0680 C   0  0  0  0  0  0  0  0  0  0  0  0
  153.3800  164.4390  165.2460 N   0  0  0  0  0  4  0  0  0  0  0  0
  153.8100  163.1420  163.3800 N   0  0  0  0  0  0  0  0  0  0  0  0
  154.3350  161.9790  163.9870 C   0  0  0  0  0  0  0  0  0  0  0  0
  153.6590  160.8560  164.3130 C   0  0  0  0  0  0  0  0  0  0  0  0
  154.3090  159.7790  164.9310 C   0  0  0  0  0  0  0  0  0  0  0  0
  155.6540  159.8140  165.2310 C   0  0  0  0  0  0  0  0  0  0  0  0
  156.3490  160.9520  164.9020 C   0  0  0  0  0  0  0  0  0  0  0  0
  155.7000  161.9990  164.2980 C   0  0  0  0  0  0  0  0  0  0  0  0
  150.0080  166.7620  162.1560 N   0  0  0  0  0  0  0  0  0  0  0  0
  148.9250  167.2700  161.5270 C   0  0  0  0  0  0  0  0  0  0  0  0
  149.1430  167.9940  159.9340 Cl  0  0  0  0  0  0  0  0  0  0  0  0
  146.5220  167.7970  160.3370 H   0  0  0  0  0  0  0  0  0  0  0  0
  145.7600  168.2180  161.8800 H   0  0  0  0  0  0  0  0  0  0  0  0
  149.3280  165.0560  165.6200 H   0  0  0  0  0  0  0  0  0  0  0  0
  147.6440  165.6470  165.7680 H   0  0  0  0  0  0  0  0  0  0  0  0
  151.6090  164.4050  162.4920 H   0  0  0  0  0  0  0  0  0  0  0  0
  152.9360  165.1090  165.8860 H   0  0  0  0  0  0  0  0  0  0  0  0
  154.2580  164.0010  165.6800 H   0  0  0  0  0  0  0  0  0  0  0  0
  153.9730  163.3390  162.3520 H   0  0  0  0  0  0  0  0  0  0  0  0
  152.5840  160.7858  164.0905 H   0  0  0  0  0  0  0  0  0  0  0  0
  153.7288  158.8794  165.1841 H   0  0  0  0  0  0  0  0  0  0  0  0
  156.1524  158.9617  165.7161 H   0  0  0  0  0  0  0  0  0  0  0  0
  157.4243  161.0239  165.1224 H   0  0  0  0  0  0  0  0  0  0  0  0
  156.2807  162.8985  164.0456 H   0  0  0  0  0  0  0  0  0  0  0  0
  1  2  1  0
  2  3  2  0
  3  4  1  0
  4  5  1  0
  4  6  2  0
  6  7  1  0
  7  8  2  0
  7  9  1  0
  9 10  1  0
 10 11  2  0
 10 12  1  0
 12 13  1  0
 13 14  2  0
 14 15  1  0
 15 16  2  0
 16 17  1  0
 17 18  2  0
  6 19  1  0
 19 20  2  0
 20 21  1  0
 20  2  1  0
 18 13  1  0
  1 22  1  0
  1 23  1  0
  5 24  1  0
  5 25  1  0
  9 26  1  0
 11 27  1  0
 11 28  1  0
 12 29  1  0
 14 30  1  0
 15 31  1  0
 16 32  1  0
 17 33  1  0
 18 34  1  0
M  CHG  1  11   1
M  END
>  <meeko>  (1) 
{"is_sidechain": false}

$$$$
