
     RDKit          3D

 50 52  0  0  0  0  0  0  0  0999 V2000
   45.6870    9.9890  -36.4040 O   0  0  0  0  0  0  0  0  0  0  0  0
   44.8070   10.7930  -36.8080 C   0  0  0  0  0  0  0  0  0  0  0  0
   44.4080   10.8450  -38.2160 C   0  0  0  0  0  0  0  0  0  0  0  0
   43.0370   10.2690  -38.4960 C   0  0  0  0  0  0  0  0  0  0  0  0
   43.0040    8.8660  -37.9920 C   0  0  0  0  0  0  0  0  0  0  0  0
   43.0770    7.8810  -39.0640 N   0  0  0  0  0  4  0  0  0  0  0  0
   43.2200    6.5460  -38.5700 C   0  0  0  0  0  0  0  0  0  0  0  0
   42.0630    6.1540  -37.6920 C   0  0  0  0  0  0  0  0  0  0  0  0
   40.7930    6.2290  -38.4860 C   0  0  0  0  0  0  0  0  0  0  0  0
   40.4410    4.8900  -38.7840 O   0  0  0  0  0  0  0  0  0  0  0  0
   39.6490    6.7290  -37.6440 C   0  0  0  0  0  0  0  0  0  0  0  0
   38.4240    6.0950  -37.6240 C   0  0  0  0  0  0  0  0  0  0  0  0
   37.3540    6.5190  -36.8690 C   0  0  0  0  0  0  0  0  0  0  0  0
   37.4940    7.6270  -36.0910 C   0  0  0  0  0  0  0  0  0  0  0  0
   36.1490    8.1810  -35.1240 Cl  0  0  0  0  0  0  0  0  0  0  0  0
   38.6910    8.2900  -36.0780 C   0  0  0  0  0  0  0  0  0  0  0  0
   39.7510    7.8450  -36.8430 C   0  0  0  0  0  0  0  0  0  0  0  0
   40.9050    6.9450  -39.7820 C   0  0  0  0  0  0  0  0  0  0  0  0
   41.9320    7.9890  -39.9090 C   0  0  0  0  0  0  0  0  0  0  0  0
   44.2100   11.6750  -35.7830 C   0  0  0  0  0  0  0  0  0  0  0  0
   44.7000   12.9530  -35.5850 C   0  0  0  0  0  0  0  0  0  0  0  0
   44.1400   13.7680  -34.6290 C   0  0  0  0  0  0  0  0  0  0  0  0
   43.0920   13.3170  -33.8680 C   0  0  0  0  0  0  0  0  0  0  0  0
   42.5050   14.0930  -32.9030 F   0  0  0  0  0  0  0  0  0  0  0  0
   42.5990   12.0540  -34.0550 C   0  0  0  0  0  0  0  0  0  0  0  0
   43.1620   11.2490  -35.0080 C   0  0  0  0  0  0  0  0  0  0  0  0
   44.4117   11.8973  -38.5366 H   0  0  0  0  0  0  0  0  0  0  0  0
   45.1290   10.2267  -38.7709 H   0  0  0  0  0  0  0  0  0  0  0  0
   42.2706   10.8669  -37.9810 H   0  0  0  0  0  0  0  0  0  0  0  0
   42.8329   10.2872  -39.5767 H   0  0  0  0  0  0  0  0  0  0  0  0
   43.8587    8.7147  -37.3163 H   0  0  0  0  0  0  0  0  0  0  0  0
   42.0447    8.7219  -37.4733 H   0  0  0  0  0  0  0  0  0  0  0  0
   43.9800    8.1100  -39.5760 H   0  0  0  0  0  0  0  0  0  0  0  0
   43.2717    5.8533  -39.4229 H   0  0  0  0  0  0  0  0  0  0  0  0
   44.1400    6.4980  -37.9689 H   0  0  0  0  0  0  0  0  0  0  0  0
   42.2091    5.1263  -37.3281 H   0  0  0  0  0  0  0  0  0  0  0  0
   42.0026    6.8387  -36.8332 H   0  0  0  0  0  0  0  0  0  0  0  0
   39.5500    4.9210  -39.2140 H   0  0  0  0  0  0  0  0  0  0  0  0
   38.2947    5.1983  -38.2478 H   0  0  0  0  0  0  0  0  0  0  0  0
   36.4006    5.9709  -36.8940 H   0  0  0  0  0  0  0  0  0  0  0  0
   38.8100    9.1865  -35.4518 H   0  0  0  0  0  0  0  0  0  0  0  0
   40.7023    8.3965  -36.8119 H   0  0  0  0  0  0  0  0  0  0  0  0
   41.1089    6.1902  -40.5558 H   0  0  0  0  0  0  0  0  0  0  0  0
   39.9517    7.4851  -39.8799 H   0  0  0  0  0  0  0  0  0  0  0  0
   42.2866    7.9800  -40.9502 H   0  0  0  0  0  0  0  0  0  0  0  0
   41.4335    8.9181  -39.5953 H   0  0  0  0  0  0  0  0  0  0  0  0
   45.5400   13.3187  -36.1938 H   0  0  0  0  0  0  0  0  0  0  0  0
   44.5335   14.7835  -34.4745 H   0  0  0  0  0  0  0  0  0  0  0  0
   41.7589   11.6896  -33.4456 H   0  0  0  0  0  0  0  0  0  0  0  0
   42.7637   10.2344  -35.1560 H   0  0  0  0  0  0  0  0  0  0  0  0
  1  2  2  0
  2  3  1  0
  3  4  1  0
  4  5  1  0
  5  6  1  0
  6  7  1  0
  7  8  1  0
  8  9  1  0
  9 10  1  0
  9 11  1  0
 11 12  2  0
 12 13  1  0
 13 14  2  0
 14 15  1  0
 14 16  1  0
 16 17  2  0
  9 18  1  0
 18 19  1  0
  2 20  1  0
 20 21  2  0
 21 22  1  0
 22 23  2  0
 23 24  1  0
 23 25  1  0
 25 26  2  0
 19  6  1  0
 26 20  1  0
 17 11  1  0
  3 27  1  0
  3 28  1  0
  4 29  1  0
  4 30  1  0
  5 31  1  0
  5 32  1  0
  6 33  1  0
  7 34  1  0
  7 35  1  0
  8 36  1  0
  8 37  1  0
 10 38  1  0
 12 39  1  0
 13 40  1  0
 16 41  1  0
 17 42  1  0
 18 43  1  0
 18 44  1  0
 19 45  1  0
 19 46  1  0
 21 47  1  0
 22 48  1  0
 25 49  1  0
 26 50  1  0
M  CHG  1   6   1
M  END
>  <meeko>  (1) 
{"is_sidechain": false}

$$$$
