@<TRIPOS>MOLECULE
MOL
   67    71     1     0     0
SMALL
bcc


@<TRIPOS>ATOM
      1 O1          88.2670   122.6800   118.6740 o          1 MOL      -0.676500
      2 C1          87.6690   122.9090   119.7460 c          1 MOL       0.690500
      3 N1          86.2930   123.1820   119.8430 ns         1 MOL      -0.548900
      4 C2          85.9300   122.9240   121.2010 c5         1 MOL       0.335200
      5 N2          87.1510   123.2340   121.9610 nh         1 MOL      -0.634000
      6 C3          87.0820   123.7500   123.2800 ca         1 MOL       0.115600
      7 C4          88.1830   123.7420   124.1030 ca         1 MOL      -0.170500
      8 C5          88.1320   124.2670   125.3980 ca         1 MOL      -0.093500
      9 C6          86.9350   124.7980   125.8290 ca         1 MOL      -0.133000
     10 C7          85.8440   124.8010   125.0000 ca         1 MOL      -0.093500
     11 C8          85.9150   124.2830   123.7360 ca         1 MOL      -0.170500
     12 C9          88.3050   122.9350   121.1170 c5         1 MOL       0.134200
     13 C10         89.3420   124.0410   121.1500 c6         1 MOL      -0.110900
     14 C11         90.5040   123.7330   120.2340 c6         1 MOL       0.117300
     15 N3          90.9830   122.3760   120.3960 nx         1 MOL      -0.693400
     16 C12         92.4390   122.2970   120.3750 c3         1 MOL       0.113800
     17 C13         93.0190   123.5740   119.8420 c3         1 MOL      -0.106400
     18 C14         93.6370   123.5230   118.5120 c3         1 MOL      -0.099400
     19 C15         93.7560   122.2920   117.7430 c3         1 MOL       0.046900
     20 C16         92.6940   122.0730   116.6960 ca         1 MOL      -0.118800
     21 C17         93.1120   121.5440   115.4960 ca         1 MOL      -0.103250
     22 C18         92.2090   121.3380   114.4830 ca         1 MOL      -0.161250
     23 C19         90.8810   121.6550   114.6560 ca         1 MOL       0.142900
     24 F1          89.9980   121.4470   113.6470 f          1 MOL      -0.125400
     25 C20         90.4830   122.1920   115.8850 ca         1 MOL      -0.161250
     26 C21         91.3800   122.4010   116.8980 ca         1 MOL      -0.103250
     27 C22         95.0500   121.8350   117.2640 ca         1 MOL      -0.118800
     28 C23         95.3700   120.5710   116.8550 ca         1 MOL      -0.103250
     29 C24         96.6820   120.3060   116.4410 ca         1 MOL      -0.161250
     30 C25         97.6440   121.2840   116.4390 ca         1 MOL       0.142900
     31 F2          98.9240   121.0530   116.0410 f          1 MOL      -0.125400
     32 C26         97.3340   122.5610   116.8470 ca         1 MOL      -0.161250
     33 C27         96.0600   122.8050   117.2470 ca         1 MOL      -0.103250
     34 C28         90.3850   121.7190   121.5290 c6         1 MOL       0.117300
     35 C29         88.9060   121.5980   121.3630 c6         1 MOL      -0.110900
     36 H1          85.6750   123.5100   119.0530 hn         1 MOL       0.364500
     37 H2          85.0990   123.5740   121.5140 h2         1 MOL       0.078700
     38 H3          85.5840   121.8920   121.3580 h2         1 MOL       0.078700
     39 H4          89.1260   123.3130   123.7340 ha         1 MOL       0.128000
     40 H5          89.0170   124.2570   126.0510 ha         1 MOL       0.146500
     41 H6          86.8560   125.2210   126.8410 ha         1 MOL       0.153000
     42 H7          84.8950   125.2270   125.3570 ha         1 MOL       0.146500
     43 H8          85.0270   124.2970   123.0870 ha         1 MOL       0.128000
     44 H9          88.8720   124.9820   120.8280 hc         1 MOL       0.098950
     45 H10         89.7240   124.1270   122.1780 hc         1 MOL       0.098950
     46 H11         90.1800   123.8730   119.1920 hx         1 MOL       0.101450
     47 H12         91.3280   124.4150   120.4920 hx         1 MOL       0.101450
     48 H13         90.6880   121.8490   119.5450 hn         1 MOL       0.483800
     49 H14         92.8090   122.1290   121.3970 hx         1 MOL       0.098200
     50 H15         92.7440   121.4650   119.7240 hx         1 MOL       0.098200
     51 H16         92.2070   124.3150   119.8020 hc         1 MOL       0.081700
     52 H17         93.8420   123.8220   120.5290 hc         1 MOL       0.081700
     53 H18         93.0630   124.2200   117.8830 hc         1 MOL       0.068200
     54 H19         94.6890   123.7400   118.7480 hc         1 MOL       0.068200
     55 H20         93.5760   121.6260   118.6000 hc         1 MOL       0.025700
     56 H21         94.1710   121.2860   115.3490 ha         1 MOL       0.140750
     57 H22         92.5490   120.9160   113.5260 ha         1 MOL       0.159250
     58 H23         89.4260   122.4520   116.0410 ha         1 MOL       0.159250
     59 H24         91.0510   122.8250   117.8580 ha         1 MOL       0.140750
     60 H25         94.6110   119.7750   116.8510 ha         1 MOL       0.140750
     61 H26         96.9470   119.2910   116.1100 ha         1 MOL       0.159250
     62 H27         98.0930   123.3570   116.8490 ha         1 MOL       0.159250
     63 H28         95.8060   123.8230   117.5770 ha         1 MOL       0.140750
     64 H29         90.8180   120.7130   121.6310 hx         1 MOL       0.101450
     65 H30         90.5870   122.3200   122.4280 hx         1 MOL       0.101450
     66 H31         88.6890   120.9400   120.5090 hc         1 MOL       0.098950
     67 H32         88.4750   121.1750   122.2830 hc         1 MOL       0.098950
@<TRIPOS>BOND
     1     1     2 2   
     2     2     3 1   
     3     3     4 1   
     4     4     5 1   
     5     5     6 1   
     6     6     7 ar  
     7     7     8 ar  
     8     8     9 ar  
     9     9    10 ar  
    10    10    11 ar  
    11     5    12 1   
    12    12    13 1   
    13    13    14 1   
    14    14    15 1   
    15    15    16 1   
    16    16    17 1   
    17    17    18 1   
    18    18    19 1   
    19    19    20 1   
    20    20    21 ar  
    21    21    22 ar  
    22    22    23 ar  
    23    23    24 1   
    24    23    25 ar  
    25    25    26 ar  
    26    19    27 1   
    27    27    28 ar  
    28    28    29 ar  
    29    29    30 ar  
    30    30    31 1   
    31    30    32 ar  
    32    32    33 ar  
    33    15    34 1   
    34    34    35 1   
    35    12     2 1   
    36    26    20 ar  
    37    33    27 ar  
    38    11     6 ar  
    39    35    12 1   
    40     3    36 1   
    41     4    37 1   
    42     4    38 1   
    43     7    39 1   
    44     8    40 1   
    45     9    41 1   
    46    10    42 1   
    47    11    43 1   
    48    13    44 1   
    49    13    45 1   
    50    14    46 1   
    51    14    47 1   
    52    15    48 1   
    53    16    49 1   
    54    16    50 1   
    55    17    51 1   
    56    17    52 1   
    57    18    53 1   
    58    18    54 1   
    59    19    55 1   
    60    21    56 1   
    61    22    57 1   
    62    25    58 1   
    63    26    59 1   
    64    28    60 1   
    65    29    61 1   
    66    32    62 1   
    67    33    63 1   
    68    34    64 1   
    69    34    65 1   
    70    35    66 1   
    71    35    67 1   
@<TRIPOS>SUBSTRUCTURE
     1 MOL         1 TEMP              0 ****  ****    0 ROOT
