
     RDKit          3D

 67 71  0  0  0  0  0  0  0  0999 V2000
   88.2670  122.6800  118.6740 O   0  0  0  0  0  0  0  0  0  0  0  0
   87.6690  122.9090  119.7460 C   0  0  0  0  0  0  0  0  0  0  0  0
   86.2930  123.1820  119.8430 N   0  0  0  0  0  0  0  0  0  0  0  0
   85.9300  122.9240  121.2010 C   0  0  0  0  0  0  0  0  0  0  0  0
   87.1510  123.2340  121.9610 N   0  0  0  0  0  0  0  0  0  0  0  0
   87.0820  123.7500  123.2800 C   0  0  0  0  0  0  0  0  0  0  0  0
   88.1830  123.7420  124.1030 C   0  0  0  0  0  0  0  0  0  0  0  0
   88.1320  124.2670  125.3980 C   0  0  0  0  0  0  0  0  0  0  0  0
   86.9350  124.7980  125.8290 C   0  0  0  0  0  0  0  0  0  0  0  0
   85.8440  124.8010  125.0000 C   0  0  0  0  0  0  0  0  0  0  0  0
   85.9150  124.2830  123.7360 C   0  0  0  0  0  0  0  0  0  0  0  0
   88.3050  122.9350  121.1170 C   0  0  0  0  0  0  0  0  0  0  0  0
   89.3420  124.0410  121.1500 C   0  0  0  0  0  0  0  0  0  0  0  0
   90.5040  123.7330  120.2340 C   0  0  0  0  0  0  0  0  0  0  0  0
   90.9830  122.3760  120.3960 N   0  0  0  0  0  4  0  0  0  0  0  0
   92.4390  122.2970  120.3750 C   0  0  0  0  0  0  0  0  0  0  0  0
   93.0190  123.5740  119.8420 C   0  0  0  0  0  0  0  0  0  0  0  0
   93.6370  123.5230  118.5120 C   0  0  0  0  0  0  0  0  0  0  0  0
   93.7560  122.2920  117.7430 C   0  0  0  0  0  0  0  0  0  0  0  0
   92.6940  122.0730  116.6960 C   0  0  0  0  0  0  0  0  0  0  0  0
   93.1120  121.5440  115.4960 C   0  0  0  0  0  0  0  0  0  0  0  0
   92.2090  121.3380  114.4830 C   0  0  0  0  0  0  0  0  0  0  0  0
   90.8810  121.6550  114.6560 C   0  0  0  0  0  0  0  0  0  0  0  0
   89.9980  121.4470  113.6470 F   0  0  0  0  0  0  0  0  0  0  0  0
   90.4830  122.1920  115.8850 C   0  0  0  0  0  0  0  0  0  0  0  0
   91.3800  122.4010  116.8980 C   0  0  0  0  0  0  0  0  0  0  0  0
   95.0500  121.8350  117.2640 C   0  0  0  0  0  0  0  0  0  0  0  0
   95.3700  120.5710  116.8550 C   0  0  0  0  0  0  0  0  0  0  0  0
   96.6820  120.3060  116.4410 C   0  0  0  0  0  0  0  0  0  0  0  0
   97.6440  121.2840  116.4390 C   0  0  0  0  0  0  0  0  0  0  0  0
   98.9240  121.0530  116.0410 F   0  0  0  0  0  0  0  0  0  0  0  0
   97.3340  122.5610  116.8470 C   0  0  0  0  0  0  0  0  0  0  0  0
   96.0600  122.8050  117.2470 C   0  0  0  0  0  0  0  0  0  0  0  0
   90.3850  121.7190  121.5290 C   0  0  0  0  0  0  0  0  0  0  0  0
   88.9060  121.5980  121.3630 C   0  0  0  0  0  0  0  0  0  0  0  0
   85.6750  123.5100  119.0530 H   0  0  0  0  0  0  0  0  0  0  0  0
   85.0993  123.5736  121.5138 H   0  0  0  0  0  0  0  0  0  0  0  0
   85.5844  121.8916  121.3580 H   0  0  0  0  0  0  0  0  0  0  0  0
   89.1262  123.3126  123.7342 H   0  0  0  0  0  0  0  0  0  0  0  0
   89.0172  124.2567  126.0509 H   0  0  0  0  0  0  0  0  0  0  0  0
   86.8555  125.2206  126.8415 H   0  0  0  0  0  0  0  0  0  0  0  0
   84.8949  125.2273  125.3570 H   0  0  0  0  0  0  0  0  0  0  0  0
   85.0273  124.2971  123.0865 H   0  0  0  0  0  0  0  0  0  0  0  0
   88.8722  124.9822  120.8284 H   0  0  0  0  0  0  0  0  0  0  0  0
   89.7241  124.1275  122.1779 H   0  0  0  0  0  0  0  0  0  0  0  0
   90.1804  123.8725  119.1920 H   0  0  0  0  0  0  0  0  0  0  0  0
   91.3276  124.4151  120.4919 H   0  0  0  0  0  0  0  0  0  0  0  0
   90.6880  121.8490  119.5450 H   0  0  0  0  0  0  0  0  0  0  0  0
   92.8086  122.1287  121.3973 H   0  0  0  0  0  0  0  0  0  0  0  0
   92.7442  121.4646  119.7239 H   0  0  0  0  0  0  0  0  0  0  0  0
   92.2074  124.3154  119.8022 H   0  0  0  0  0  0  0  0  0  0  0  0
   93.8416  123.8218  120.5290 H   0  0  0  0  0  0  0  0  0  0  0  0
   93.0630  124.2196  117.8834 H   0  0  0  0  0  0  0  0  0  0  0  0
   94.6893  123.7395  118.7481 H   0  0  0  0  0  0  0  0  0  0  0  0
   93.5764  121.6260  118.5999 H   0  0  0  0  0  0  0  0  0  0  0  0
   94.1711  121.2860  115.3486 H   0  0  0  0  0  0  0  0  0  0  0  0
   92.5493  120.9164  113.5257 H   0  0  0  0  0  0  0  0  0  0  0  0
   89.4256  122.4522  116.0409 H   0  0  0  0  0  0  0  0  0  0  0  0
   91.0507  122.8253  117.8580 H   0  0  0  0  0  0  0  0  0  0  0  0
   94.6106  119.7752  116.8509 H   0  0  0  0  0  0  0  0  0  0  0  0
   96.9467  119.2909  116.1101 H   0  0  0  0  0  0  0  0  0  0  0  0
   98.0929  123.3573  116.8490 H   0  0  0  0  0  0  0  0  0  0  0  0
   95.8063  123.8233  117.5768 H   0  0  0  0  0  0  0  0  0  0  0  0
   90.8183  120.7131  121.6306 H   0  0  0  0  0  0  0  0  0  0  0  0
   90.5871  122.3204  122.4276 H   0  0  0  0  0  0  0  0  0  0  0  0
   88.6891  120.9396  120.5089 H   0  0  0  0  0  0  0  0  0  0  0  0
   88.4754  121.1751  122.2827 H   0  0  0  0  0  0  0  0  0  0  0  0
  1  2  2  0
  2  3  1  0
  3  4  1  0
  4  5  1  0
  5  6  1  0
  6  7  2  0
  7  8  1  0
  8  9  2  0
  9 10  1  0
 10 11  2  0
  5 12  1  0
 12 13  1  0
 13 14  1  0
 14 15  1  0
 15 16  1  0
 16 17  1  0
 17 18  1  0
 18 19  1  0
 19 20  1  0
 20 21  2  0
 21 22  1  0
 22 23  2  0
 23 24  1  0
 23 25  1  0
 25 26  2  0
 19 27  1  0
 27 28  2  0
 28 29  1  0
 29 30  2  0
 30 31  1  0
 30 32  1  0
 32 33  2  0
 15 34  1  0
 34 35  1  0
 12  2  1  0
 26 20  1  0
 33 27  1  0
 11  6  1  0
 35 12  1  0
  3 36  1  0
  4 37  1  0
  4 38  1  0
  7 39  1  0
  8 40  1  0
  9 41  1  0
 10 42  1  0
 11 43  1  0
 13 44  1  0
 13 45  1  0
 14 46  1  0
 14 47  1  0
 15 48  1  0
 16 49  1  0
 16 50  1  0
 17 51  1  0
 17 52  1  0
 18 53  1  0
 18 54  1  0
 19 55  1  0
 21 56  1  0
 22 57  1  0
 25 58  1  0
 26 59  1  0
 28 60  1  0
 29 61  1  0
 32 62  1  0
 33 63  1  0
 34 64  1  0
 34 65  1  0
 35 66  1  0
 35 67  1  0
M  CHG  1  15   1
M  END
>  <meeko>  (1) 
{"is_sidechain": false}

$$$$
