
     RDKit          3D

 50 52  0  0  0  0  0  0  0  0999 V2000
   -5.5690    9.4980   13.0670 O   0  0  0  0  0  0  0  0  0  0  0  0
   -6.6440    9.6070   12.4230 C   0  0  0  0  0  0  0  0  0  0  0  0
   -7.9390    9.3100   13.0400 C   0  0  0  0  0  0  0  0  0  0  0  0
   -7.8440    8.6830   14.4130 C   0  0  0  0  0  0  0  0  0  0  0  0
   -9.2260    8.4650   14.9270 C   0  0  0  0  0  0  0  0  0  0  0  0
   -9.7770    7.1750   14.5330 N   0  0  0  0  0  4  0  0  0  0  0  0
   -9.0000    6.0760   15.0190 C   0  0  0  0  0  0  0  0  0  0  0  0
   -8.9180    6.0780   16.5210 C   0  0  0  0  0  0  0  0  0  0  0  0
  -10.3010    5.9640   17.0900 C   0  0  0  0  0  0  0  0  0  0  0  0
  -10.4260    4.6290   17.5440 O   0  0  0  0  0  0  0  0  0  0  0  0
  -10.4480    6.7910   18.3400 C   0  0  0  0  0  0  0  0  0  0  0  0
  -11.3500    7.8310   18.4280 C   0  0  0  0  0  0  0  0  0  0  0  0
  -11.5150    8.6100   19.5510 C   0  0  0  0  0  0  0  0  0  0  0  0
  -10.7530    8.3530   20.6480 C   0  0  0  0  0  0  0  0  0  0  0  0
  -10.9480    9.3290   22.0840 Cl  0  0  0  0  0  0  0  0  0  0  0  0
   -9.8440    7.3310   20.6090 C   0  0  0  0  0  0  0  0  0  0  0  0
   -9.6960    6.5630   19.4710 C   0  0  0  0  0  0  0  0  0  0  0  0
  -11.3990    6.1950   16.1190 C   0  0  0  0  0  0  0  0  0  0  0  0
  -11.1330    7.0670   14.9660 C   0  0  0  0  0  0  0  0  0  0  0  0
   -6.5190   10.0480   11.0170 C   0  0  0  0  0  0  0  0  0  0  0  0
   -6.4930   11.3950   10.7030 C   0  0  0  0  0  0  0  0  0  0  0  0
   -6.3770   11.7980    9.3940 C   0  0  0  0  0  0  0  0  0  0  0  0
   -6.2860   10.8650    8.3920 C   0  0  0  0  0  0  0  0  0  0  0  0
   -6.1710   11.2210    7.0730 F   0  0  0  0  0  0  0  0  0  0  0  0
   -6.3110    9.5300    8.6900 C   0  0  0  0  0  0  0  0  0  0  0  0
   -6.4270    9.1360    9.9960 C   0  0  0  0  0  0  0  0  0  0  0  0
   -8.5023   10.2506   13.1289 H   0  0  0  0  0  0  0  0  0  0  0  0
   -8.4363    8.5742   12.3909 H   0  0  0  0  0  0  0  0  0  0  0  0
   -7.3163    7.7202   14.3461 H   0  0  0  0  0  0  0  0  0  0  0  0
   -7.2877    9.3448   15.0931 H   0  0  0  0  0  0  0  0  0  0  0  0
   -9.2050    8.5177   16.0255 H   0  0  0  0  0  0  0  0  0  0  0  0
   -9.8680    9.2461   14.4937 H   0  0  0  0  0  0  0  0  0  0  0  0
   -9.6900    7.1590   13.4730 H   0  0  0  0  0  0  0  0  0  0  0  0
   -9.4652    5.1358   14.6880 H   0  0  0  0  0  0  0  0  0  0  0  0
   -7.9800    6.1716   14.6183 H   0  0  0  0  0  0  0  0  0  0  0  0
   -8.3102    5.2252   16.8575 H   0  0  0  0  0  0  0  0  0  0  0  0
   -8.4527    7.0136   16.8647 H   0  0  0  0  0  0  0  0  0  0  0  0
  -10.6410    4.0790   16.7500 H   0  0  0  0  0  0  0  0  0  0  0  0
  -11.9741    8.0508   17.5492 H   0  0  0  0  0  0  0  0  0  0  0  0
  -12.2513    9.4272   19.5610 H   0  0  0  0  0  0  0  0  0  0  0  0
   -9.2249    7.1190   21.4932 H   0  0  0  0  0  0  0  0  0  0  0  0
   -8.9579    5.7474   19.4677 H   0  0  0  0  0  0  0  0  0  0  0  0
  -11.6970    5.2128   15.7235 H   0  0  0  0  0  0  0  0  0  0  0  0
  -12.1658    6.7321   16.6965 H   0  0  0  0  0  0  0  0  0  0  0  0
  -11.7222    6.6857   14.1190 H   0  0  0  0  0  0  0  0  0  0  0  0
  -11.4058    8.0776   15.3039 H   0  0  0  0  0  0  0  0  0  0  0  0
   -6.5654   12.1460   11.5035 H   0  0  0  0  0  0  0  0  0  0  0  0
   -6.3571   12.8703    9.1493 H   0  0  0  0  0  0  0  0  0  0  0  0
   -6.2386    8.7805    7.8881 H   0  0  0  0  0  0  0  0  0  0  0  0
   -6.4469    8.0619   10.2326 H   0  0  0  0  0  0  0  0  0  0  0  0
  1  2  2  0
  2  3  1  0
  3  4  1  0
  4  5  1  0
  5  6  1  0
  6  7  1  0
  7  8  1  0
  8  9  1  0
  9 10  1  0
  9 11  1  0
 11 12  2  0
 12 13  1  0
 13 14  2  0
 14 15  1  0
 14 16  1  0
 16 17  2  0
  9 18  1  0
 18 19  1  0
  2 20  1  0
 20 21  2  0
 21 22  1  0
 22 23  2  0
 23 24  1  0
 23 25  1  0
 25 26  2  0
 19  6  1  0
 26 20  1  0
 17 11  1  0
  3 27  1  0
  3 28  1  0
  4 29  1  0
  4 30  1  0
  5 31  1  0
  5 32  1  0
  6 33  1  0
  7 34  1  0
  7 35  1  0
  8 36  1  0
  8 37  1  0
 10 38  1  0
 12 39  1  0
 13 40  1  0
 16 41  1  0
 17 42  1  0
 18 43  1  0
 18 44  1  0
 19 45  1  0
 19 46  1  0
 21 47  1  0
 22 48  1  0
 25 49  1  0
 26 50  1  0
M  CHG  1   6   1
M  END
>  <meeko>  (1) 
{"is_sidechain": false}

$$$$
