
     RDKit          3D

 27 29  0  0  0  0  0  0  0  0999 V2000
  135.0650  179.3790  117.3520 O   0  0  0  0  0  0  0  0  0  0  0  0
  134.0130  179.5300  118.0080 C   0  0  0  0  0  0  0  0  0  0  0  0
  134.1570  179.9840  119.3350 C   0  0  0  0  0  0  0  0  0  0  0  0
  135.4070  180.2330  119.8330 O   0  0  0  0  0  1  0  0  0  0  0  0
  133.0260  180.1580  120.0770 C   0  0  0  0  0  0  0  0  0  0  0  0
  133.0460  180.6200  121.4530 C   0  0  0  0  0  0  0  0  0  0  0  0
  133.1790  179.8730  122.5800 C   0  0  0  0  0  0  0  0  0  0  0  0
  133.1870  180.4130  123.8580 C   0  0  0  0  0  0  0  0  0  0  0  0
  133.0580  181.7600  124.0550 C   0  0  0  0  0  0  0  0  0  0  0  0
  132.9210  182.5530  122.9390 C   0  0  0  0  0  0  0  0  0  0  0  0
  132.9160  182.0010  121.6790 C   0  0  0  0  0  0  0  0  0  0  0  0
  131.8310  179.8890  119.5130 O   0  0  0  0  0  0  0  0  0  0  0  0
  131.6910  179.4760  118.3090 C   0  0  0  0  0  0  0  0  0  0  0  0
  130.4490  179.2220  117.7940 C   0  0  0  0  0  0  0  0  0  0  0  0
  130.2620  178.7770  116.5030 C   0  0  0  0  0  0  0  0  0  0  0  0
  128.9820  178.5260  116.0070 O   0  0  0  0  0  1  0  0  0  0  0  0
  131.3820  178.5800  115.6930 C   0  0  0  0  0  0  0  0  0  0  0  0
  132.6410  178.8250  116.1780 C   0  0  0  0  0  0  0  0  0  0  0  0
  133.7410  178.6270  115.3710 O   0  0  0  0  0  1  0  0  0  0  0  0
  132.7730  179.2680  117.4700 C   0  0  0  0  0  0  0  0  0  0  0  0
  133.2859  178.7834  122.4737 H   0  0  0  0  0  0  0  0  0  0  0  0
  133.2989  179.7471  124.7264 H   0  0  0  0  0  0  0  0  0  0  0  0
  133.0635  182.1927  125.0663 H   0  0  0  0  0  0  0  0  0  0  0  0
  132.8142  183.6416  123.0557 H   0  0  0  0  0  0  0  0  0  0  0  0
  132.8056  182.6687  120.8118 H   0  0  0  0  0  0  0  0  0  0  0  0
  129.5678  179.3786  118.4335 H   0  0  0  0  0  0  0  0  0  0  0  0
  131.2537  178.2261  114.6594 H   0  0  0  0  0  0  0  0  0  0  0  0
  1  2  2  0
  2  3  1  0
  3  4  1  0
  3  5  2  0
  5  6  1  0
  6  7  2  0
  7  8  1  0
  8  9  2  0
  9 10  1  0
 10 11  2  0
  5 12  1  0
 12 13  1  0
 13 14  2  0
 14 15  1  0
 15 16  1  0
 15 17  2  0
 17 18  1  0
 18 19  1  0
 18 20  2  0
 20  2  1  0
 11  6  1  0
 20 13  1  0
  7 21  1  0
  8 22  1  0
  9 23  1  0
 10 24  1  0
 11 25  1  0
 14 26  1  0
 17 27  1  0
M  CHG  3   4  -1  16  -1  19  -1
M  END
>  <meeko>  (1) 
{"is_sidechain": false}

$$$$
