
     RDKit          3D

 58 60  0  0  0  0  0  0  0  0999 V2000
   24.6150   25.3150  -10.3320 C   0  0  0  0  0  0  0  0  0  0  0  0
   23.6260   24.2450  -10.6890 C   0  0  0  0  0  0  0  0  0  0  0  0
   23.2240   23.5270   -9.4490 C   0  0  0  0  0  0  0  0  0  0  0  0
   22.2180   22.6960   -9.3570 C   0  0  0  0  0  0  0  0  0  0  0  0
   21.4150   22.4200  -10.5310 C   0  0  0  0  0  0  0  0  0  0  0  0
   20.4370   23.2870  -10.9760 C   0  0  0  0  0  0  0  0  0  0  0  0
   19.6800   22.9430  -12.0660 C   0  0  0  0  0  0  0  0  0  0  0  0
   19.8630   21.7520  -12.7400 C   0  0  0  0  0  0  0  0  0  0  0  0
   20.8420   20.8600  -12.3110 C   0  0  0  0  0  0  0  0  0  0  0  0
   21.5910   21.2210  -11.2150 C   0  0  0  0  0  0  0  0  0  0  0  0
   21.8390   22.0570   -8.1090 C   0  0  0  0  0  0  0  0  0  0  0  0
   22.0600   20.7150   -7.8710 C   0  0  0  0  0  0  0  0  0  0  0  0
   21.6670   20.1250   -6.6790 C   0  0  0  0  0  0  0  0  0  0  0  0
   21.0420   20.8120   -5.6650 C   0  0  0  0  0  0  0  0  0  0  0  0
   20.6400   20.2610   -4.4620 O   0  0  0  0  0  0  0  0  0  0  0  0
   20.1660   18.9850   -4.2110 C   0  0  0  0  0  0  0  0  0  0  0  0
   20.4540   18.4390   -2.8360 C   0  0  0  0  0  0  0  0  0  0  0  0
   21.2260   17.2350   -2.8650 N   0  0  0  0  0  4  0  0  0  0  0  0
   22.5620   17.4190   -3.3900 C   0  0  0  0  0  0  0  0  0  0  0  0
   20.6030   16.1850   -3.6440 C   0  0  0  0  0  0  0  0  0  0  0  0
   20.8200   22.1750   -5.9120 C   0  0  0  0  0  0  0  0  0  0  0  0
   21.2060   22.7590   -7.0890 C   0  0  0  0  0  0  0  0  0  0  0  0
   24.1120   23.7730   -8.2990 C   0  0  0  0  0  0  0  0  0  0  0  0
   23.8830   24.7890   -7.4070 C   0  0  0  0  0  0  0  0  0  0  0  0
   24.7460   24.9820   -6.3590 C   0  0  0  0  0  0  0  0  0  0  0  0
   25.8440   24.1520   -6.2050 C   0  0  0  0  0  0  0  0  0  0  0  0
   26.1010   23.1250   -7.0840 C   0  0  0  0  0  0  0  0  0  0  0  0
   25.1960   22.9630   -8.1370 C   0  0  0  0  0  0  0  0  0  0  0  0
   24.6892   25.3953   -9.2374 H   0  0  0  0  0  0  0  0  0  0  0  0
   25.6000   25.0575  -10.7484 H   0  0  0  0  0  0  0  0  0  0  0  0
   24.2809   26.2768  -10.7484 H   0  0  0  0  0  0  0  0  0  0  0  0
   22.7403   24.7015  -11.1550 H   0  0  0  0  0  0  0  0  0  0  0  0
   24.0815   23.5380  -11.3980 H   0  0  0  0  0  0  0  0  0  0  0  0
   20.2669   24.2441  -10.4612 H   0  0  0  0  0  0  0  0  0  0  0  0
   18.9020   23.6380  -12.4147 H   0  0  0  0  0  0  0  0  0  0  0  0
   19.2381   21.5090  -13.6120 H   0  0  0  0  0  0  0  0  0  0  0  0
   21.0101   19.9038  -12.8282 H   0  0  0  0  0  0  0  0  0  0  0  0
   22.3679   20.5271  -10.8616 H   0  0  0  0  0  0  0  0  0  0  0  0
   22.5559   20.1038   -8.6394 H   0  0  0  0  0  0  0  0  0  0  0  0
   21.8655   19.0524   -6.5375 H   0  0  0  0  0  0  0  0  0  0  0  0
   19.0746   18.9970   -4.3480 H   0  0  0  0  0  0  0  0  0  0  0  0
   20.6967   18.3248   -4.9127 H   0  0  0  0  0  0  0  0  0  0  0  0
   21.0096   19.1984   -2.2662 H   0  0  0  0  0  0  0  0  0  0  0  0
   19.4881   18.2003   -2.3669 H   0  0  0  0  0  0  0  0  0  0  0  0
   21.3460   16.8290   -1.8890 H   0  0  0  0  0  0  0  0  0  0  0  0
   23.2732   17.5169   -2.5566 H   0  0  0  0  0  0  0  0  0  0  0  0
   22.8367   16.5502   -4.0062 H   0  0  0  0  0  0  0  0  0  0  0  0
   22.5916   18.3297   -4.0062 H   0  0  0  0  0  0  0  0  0  0  0  0
   20.1606   15.4394   -2.9669 H   0  0  0  0  0  0  0  0  0  0  0  0
   19.8152   16.6173   -4.2784 H   0  0  0  0  0  0  0  0  0  0  0  0
   21.3600   15.7007   -4.2784 H   0  0  0  0  0  0  0  0  0  0  0  0
   20.3254   22.7877   -5.1439 H   0  0  0  0  0  0  0  0  0  0  0  0
   21.0065   23.8310   -7.2340 H   0  0  0  0  0  0  0  0  0  0  0  0
   23.0102   25.4468   -7.5317 H   0  0  0  0  0  0  0  0  0  0  0  0
   24.5663   25.7957   -5.6409 H   0  0  0  0  0  0  0  0  0  0  0  0
   26.5274   24.3179   -5.3592 H   0  0  0  0  0  0  0  0  0  0  0  0
   26.9733   22.4657   -6.9643 H   0  0  0  0  0  0  0  0  0  0  0  0
   25.3649   22.1524   -8.8611 H   0  0  0  0  0  0  0  0  0  0  0  0
  1  2  1  0
  2  3  1  0
  3  4  2  0
  4  5  1  0
  5  6  2  0
  6  7  1  0
  7  8  2  0
  8  9  1  0
  9 10  2  0
  4 11  1  0
 11 12  2  0
 12 13  1  0
 13 14  2  0
 14 15  1  0
 15 16  1  0
 16 17  1  0
 17 18  1  0
 18 19  1  0
 18 20  1  0
 14 21  1  0
 21 22  2  0
  3 23  1  0
 23 24  2  0
 24 25  1  0
 25 26  2  0
 26 27  1  0
 27 28  2  0
 10  5  1  0
 22 11  1  0
 28 23  1  0
  1 29  1  0
  1 30  1  0
  1 31  1  0
  2 32  1  0
  2 33  1  0
  6 34  1  0
  7 35  1  0
  8 36  1  0
  9 37  1  0
 10 38  1  0
 12 39  1  0
 13 40  1  0
 16 41  1  0
 16 42  1  0
 17 43  1  0
 17 44  1  0
 18 45  1  0
 19 46  1  0
 19 47  1  0
 19 48  1  0
 20 49  1  0
 20 50  1  0
 20 51  1  0
 21 52  1  0
 22 53  1  0
 24 54  1  0
 25 55  1  0
 26 56  1  0
 27 57  1  0
 28 58  1  0
M  CHG  1  18   1
M  END
>  <meeko>  (1) 
{"is_sidechain": false}

$$$$
