
     RDKit          3D

 67 71  0  0  0  0  0  0  0  0999 V2000
  111.2440  109.9560  153.7550 O   0  0  0  0  0  0  0  0  0  0  0  0
  111.5960  110.5900  152.7400 C   0  0  0  0  0  0  0  0  0  0  0  0
  112.5020  111.6660  152.7510 N   0  0  0  0  0  0  0  0  0  0  0  0
  112.9830  111.7970  151.4120 C   0  0  0  0  0  0  0  0  0  0  0  0
  111.8580  111.3390  150.5830 N   0  0  0  0  0  0  0  0  0  0  0  0
  111.6250  111.8870  149.2960 C   0  0  0  0  0  0  0  0  0  0  0  0
  110.5430  111.4950  148.5430 C   0  0  0  0  0  0  0  0  0  0  0  0
  110.2920  112.0440  147.2820 C   0  0  0  0  0  0  0  0  0  0  0  0
  111.1690  112.9980  146.8110 C   0  0  0  0  0  0  0  0  0  0  0  0
  112.2440  113.3800  147.5700 C   0  0  0  0  0  0  0  0  0  0  0  0
  112.4710  112.8310  148.8020 C   0  0  0  0  0  0  0  0  0  0  0  0
  111.1210  110.3220  151.3300 C   0  0  0  0  0  0  0  0  0  0  0  0
  109.6230  110.5420  151.2730 C   0  0  0  0  0  0  0  0  0  0  0  0
  108.8840  109.5080  152.0900 C   0  0  0  0  0  0  0  0  0  0  0  0
  109.3620  108.1650  151.8360 N   0  0  0  0  0  4  0  0  0  0  0  0
  108.2750  107.1960  151.7520 C   0  0  0  0  0  0  0  0  0  0  0  0
  108.4910  106.2770  150.5850 C   0  0  0  0  0  0  0  0  0  0  0  0
  108.4440  104.8360  150.8530 C   0  0  0  0  0  0  0  0  0  0  0  0
  108.7250  104.2660  152.1640 C   0  0  0  0  0  0  0  0  0  0  0  0
  107.7660  103.2020  152.6300 C   0  0  0  0  0  0  0  0  0  0  0  0
  107.3020  103.3130  153.9220 C   0  0  0  0  0  0  0  0  0  0  0  0
  106.4440  102.3700  154.4300 C   0  0  0  0  0  0  0  0  0  0  0  0
  106.0390  101.3060  153.6560 C   0  0  0  0  0  0  0  0  0  0  0  0
  105.1910  100.3800  154.1690 F   0  0  0  0  0  0  0  0  0  0  0  0
  106.5260  101.2160  152.3470 C   0  0  0  0  0  0  0  0  0  0  0  0
  107.3830  102.1540  151.8370 C   0  0  0  0  0  0  0  0  0  0  0  0
  110.0850  103.9400  152.5580 C   0  0  0  0  0  0  0  0  0  0  0  0
  110.6810  102.7110  152.5010 C   0  0  0  0  0  0  0  0  0  0  0  0
  112.0020  102.5780  152.9450 C   0  0  0  0  0  0  0  0  0  0  0  0
  112.7060  103.6510  153.4300 C   0  0  0  0  0  0  0  0  0  0  0  0
  113.9910  103.5490  153.8660 F   0  0  0  0  0  0  0  0  0  0  0  0
  112.1190  104.8940  153.4920 C   0  0  0  0  0  0  0  0  0  0  0  0
  110.8370  105.0100  153.0600 C   0  0  0  0  0  0  0  0  0  0  0  0
  110.2700  108.1130  150.7200 C   0  0  0  0  0  0  0  0  0  0  0  0
  111.4950  108.9250  150.9840 C   0  0  0  0  0  0  0  0  0  0  0  0
  112.7570  112.2440  153.5970 H   0  0  0  0  0  0  0  0  0  0  0  0
  113.2333  112.8443  151.1872 H   0  0  0  0  0  0  0  0  0  0  0  0
  113.9023  111.2197  151.2342 H   0  0  0  0  0  0  0  0  0  0  0  0
  109.8590  110.7316  148.9423 H   0  0  0  0  0  0  0  0  0  0  0  0
  109.4242  111.7256  146.6857 H   0  0  0  0  0  0  0  0  0  0  0  0
  111.0053  113.4537  145.8233 H   0  0  0  0  0  0  0  0  0  0  0  0
  112.9365  114.1414  147.1817 H   0  0  0  0  0  0  0  0  0  0  0  0
  113.3397  113.1535  149.3948 H   0  0  0  0  0  0  0  0  0  0  0  0
  109.3926  111.5423  151.6683 H   0  0  0  0  0  0  0  0  0  0  0  0
  109.2989  110.4528  150.2256 H   0  0  0  0  0  0  0  0  0  0  0  0
  109.0205  109.7364  153.1573 H   0  0  0  0  0  0  0  0  0  0  0  0
  107.8226  109.5479  151.8040 H   0  0  0  0  0  0  0  0  0  0  0  0
  109.8980  107.8710  152.6820 H   0  0  0  0  0  0  0  0  0  0  0  0
  108.2423  106.6049  152.6791 H   0  0  0  0  0  0  0  0  0  0  0  0
  107.3245  107.7327  151.6160 H   0  0  0  0  0  0  0  0  0  0  0  0
  107.7147  106.5009  149.8385 H   0  0  0  0  0  0  0  0  0  0  0  0
  109.5222  106.4721  150.2556 H   0  0  0  0  0  0  0  0  0  0  0  0
  107.4256  104.5118  150.5928 H   0  0  0  0  0  0  0  0  0  0  0  0
  109.3005  104.4735  150.2657 H   0  0  0  0  0  0  0  0  0  0  0  0
  108.5408  105.1993  152.7164 H   0  0  0  0  0  0  0  0  0  0  0  0
  107.6199  104.1596  154.5483 H   0  0  0  0  0  0  0  0  0  0  0  0
  106.0774  102.4650  155.4627 H   0  0  0  0  0  0  0  0  0  0  0  0
  106.2132  100.3727  151.7137 H   0  0  0  0  0  0  0  0  0  0  0  0
  107.7578  102.0669  150.8065 H   0  0  0  0  0  0  0  0  0  0  0  0
  110.1316  101.8408  152.1126 H   0  0  0  0  0  0  0  0  0  0  0  0
  112.4863  101.5912  152.9041 H   0  0  0  0  0  0  0  0  0  0  0  0
  112.6697  105.7642  153.8785 H   0  0  0  0  0  0  0  0  0  0  0  0
  110.3617  106.0009  153.1069 H   0  0  0  0  0  0  0  0  0  0  0  0
  110.5632  107.0675  150.5441 H   0  0  0  0  0  0  0  0  0  0  0  0
  109.7612  108.5262  149.8366 H   0  0  0  0  0  0  0  0  0  0  0  0
  112.0522  108.4801  151.8216 H   0  0  0  0  0  0  0  0  0  0  0  0
  112.1207  108.9348  150.0794 H   0  0  0  0  0  0  0  0  0  0  0  0
  1  2  2  0
  2  3  1  0
  3  4  1  0
  4  5  1  0
  5  6  1  0
  6  7  2  0
  7  8  1  0
  8  9  2  0
  9 10  1  0
 10 11  2  0
  5 12  1  0
 12 13  1  0
 13 14  1  0
 14 15  1  0
 15 16  1  0
 16 17  1  0
 17 18  1  0
 18 19  1  0
 19 20  1  0
 20 21  2  0
 21 22  1  0
 22 23  2  0
 23 24  1  0
 23 25  1  0
 25 26  2  0
 19 27  1  0
 27 28  2  0
 28 29  1  0
 29 30  2  0
 30 31  1  0
 30 32  1  0
 32 33  2  0
 15 34  1  0
 34 35  1  0
 12  2  1  0
 26 20  1  0
 33 27  1  0
 11  6  1  0
 35 12  1  0
  3 36  1  0
  4 37  1  0
  4 38  1  0
  7 39  1  0
  8 40  1  0
  9 41  1  0
 10 42  1  0
 11 43  1  0
 13 44  1  0
 13 45  1  0
 14 46  1  0
 14 47  1  0
 15 48  1  0
 16 49  1  0
 16 50  1  0
 17 51  1  0
 17 52  1  0
 18 53  1  0
 18 54  1  0
 19 55  1  0
 21 56  1  0
 22 57  1  0
 25 58  1  0
 26 59  1  0
 28 60  1  0
 29 61  1  0
 32 62  1  0
 33 63  1  0
 34 64  1  0
 34 65  1  0
 35 66  1  0
 35 67  1  0
M  CHG  1  15   1
M  END
>  <meeko>  (1) 
{"is_sidechain": false}

$$$$
