
     RDKit          3D

 50 52  0  0  0  0  0  0  0  0999 V2000
   -9.5490    5.0080   52.8620 O   0  0  0  0  0  0  0  0  0  0  0  0
   -9.4540    5.8200   53.8180 C   0  0  0  0  0  0  0  0  0  0  0  0
   -9.2560    5.3620   55.1950 C   0  0  0  0  0  0  0  0  0  0  0  0
   -9.4290    3.8710   55.3860 C   0  0  0  0  0  0  0  0  0  0  0  0
   -9.6650    3.6060   56.8330 C   0  0  0  0  0  0  0  0  0  0  0  0
   -8.4860    3.0760   57.5080 N   0  0  0  0  0  4  0  0  0  0  0  0
   -7.5200    4.0920   57.7980 C   0  0  0  0  0  0  0  0  0  0  0  0
   -8.0920    5.1610   58.6880 C   0  0  0  0  0  0  0  0  0  0  0  0
   -8.5290    4.5430   59.9830 C   0  0  0  0  0  0  0  0  0  0  0  0
   -7.5460    4.9020   60.9370 O   0  0  0  0  0  0  0  0  0  0  0  0
   -9.7900    5.1870   60.4980 C   0  0  0  0  0  0  0  0  0  0  0  0
   -9.9360    5.5570   61.8190 C   0  0  0  0  0  0  0  0  0  0  0  0
  -11.0700    6.1470   62.3290 C   0  0  0  0  0  0  0  0  0  0  0  0
  -12.1190    6.3870   61.4970 C   0  0  0  0  0  0  0  0  0  0  0  0
  -13.5670    7.1360   62.1240 Cl  0  0  0  0  0  0  0  0  0  0  0  0
  -12.0220    6.0370   60.1770 C   0  0  0  0  0  0  0  0  0  0  0  0
  -10.8730    5.4470   59.6870 C   0  0  0  0  0  0  0  0  0  0  0  0
   -8.6050    3.0610   59.9760 C   0  0  0  0  0  0  0  0  0  0  0  0
   -8.8700    2.3870   58.6970 C   0  0  0  0  0  0  0  0  0  0  0  0
   -9.5560    7.2520   53.4680 C   0  0  0  0  0  0  0  0  0  0  0  0
  -10.2160    8.1350   54.3040 C   0  0  0  0  0  0  0  0  0  0  0  0
  -10.3060    9.4660   53.9710 C   0  0  0  0  0  0  0  0  0  0  0  0
   -9.7420    9.9250   52.8090 C   0  0  0  0  0  0  0  0  0  0  0  0
   -9.8100   11.2430   52.4360 F   0  0  0  0  0  0  0  0  0  0  0  0
   -9.0870    9.0620   51.9740 C   0  0  0  0  0  0  0  0  0  0  0  0
   -9.0000    7.7380   52.3110 C   0  0  0  0  0  0  0  0  0  0  0  0
   -8.2359    5.6330   55.5049 H   0  0  0  0  0  0  0  0  0  0  0  0
  -10.0315    5.8498   55.8039 H   0  0  0  0  0  0  0  0  0  0  0  0
  -10.2898    3.5187   54.7987 H   0  0  0  0  0  0  0  0  0  0  0  0
   -8.5276    3.3396   55.0468 H   0  0  0  0  0  0  0  0  0  0  0  0
   -9.9557    4.5483   57.3204 H   0  0  0  0  0  0  0  0  0  0  0  0
  -10.4587    2.8480   56.9067 H   0  0  0  0  0  0  0  0  0  0  0  0
   -8.0370    2.4300   56.7930 H   0  0  0  0  0  0  0  0  0  0  0  0
   -6.6576    3.6314   58.3021 H   0  0  0  0  0  0  0  0  0  0  0  0
   -7.2166    4.5595   56.8496 H   0  0  0  0  0  0  0  0  0  0  0  0
   -7.3253    5.9248   58.8851 H   0  0  0  0  0  0  0  0  0  0  0  0
   -8.9546    5.6312   58.1933 H   0  0  0  0  0  0  0  0  0  0  0  0
   -8.0200    5.3710   61.6680 H   0  0  0  0  0  0  0  0  0  0  0  0
   -9.0968    5.3694   62.5049 H   0  0  0  0  0  0  0  0  0  0  0  0
  -11.1272    6.4202   63.3930 H   0  0  0  0  0  0  0  0  0  0  0  0
  -12.8676    6.2275   59.4997 H   0  0  0  0  0  0  0  0  0  0  0  0
  -10.8214    5.1778   58.6217 H   0  0  0  0  0  0  0  0  0  0  0  0
   -7.6425    2.6829   60.3511 H   0  0  0  0  0  0  0  0  0  0  0  0
   -9.4846    2.8294   60.5945 H   0  0  0  0  0  0  0  0  0  0  0  0
   -8.3341    1.4265   58.7112 H   0  0  0  0  0  0  0  0  0  0  0  0
   -9.9656    2.3072   58.6387 H   0  0  0  0  0  0  0  0  0  0  0  0
  -10.6700    7.7712   55.2376 H   0  0  0  0  0  0  0  0  0  0  0  0
  -10.8319   10.1642   54.6387 H   0  0  0  0  0  0  0  0  0  0  0  0
   -8.6345    9.4283   51.0407 H   0  0  0  0  0  0  0  0  0  0  0  0
   -8.4716    7.0467   51.6381 H   0  0  0  0  0  0  0  0  0  0  0  0
  1  2  2  0
  2  3  1  0
  3  4  1  0
  4  5  1  0
  5  6  1  0
  6  7  1  0
  7  8  1  0
  8  9  1  0
  9 10  1  0
  9 11  1  0
 11 12  2  0
 12 13  1  0
 13 14  2  0
 14 15  1  0
 14 16  1  0
 16 17  2  0
  9 18  1  0
 18 19  1  0
  2 20  1  0
 20 21  2  0
 21 22  1  0
 22 23  2  0
 23 24  1  0
 23 25  1  0
 25 26  2  0
 19  6  1  0
 26 20  1  0
 17 11  1  0
  3 27  1  0
  3 28  1  0
  4 29  1  0
  4 30  1  0
  5 31  1  0
  5 32  1  0
  6 33  1  0
  7 34  1  0
  7 35  1  0
  8 36  1  0
  8 37  1  0
 10 38  1  0
 12 39  1  0
 13 40  1  0
 16 41  1  0
 17 42  1  0
 18 43  1  0
 18 44  1  0
 19 45  1  0
 19 46  1  0
 21 47  1  0
 22 48  1  0
 25 49  1  0
 26 50  1  0
M  CHG  1   6   1
M  END
>  <meeko>  (1) 
{"is_sidechain": false}

$$$$
