
     RDKit          3D

 60 62  0  0  0  0  0  0  0  0999 V2000
   22.8880   18.6990  -10.2910 O   0  0  0  0  0  0  0  0  0  0  0  0
   21.9610   18.8690  -11.1200 C   0  0  0  0  0  0  0  0  0  0  0  0
   21.4870   17.6940  -11.8880 C   0  0  0  0  0  0  0  0  0  0  0  0
   22.0960   16.4780  -11.6410 C   0  0  0  0  0  0  0  0  0  0  0  0
   23.1150   16.4000  -10.6970 O   0  0  0  0  0  1  0  0  0  0  0  0
   21.6710   15.3700  -12.3410 C   0  0  0  0  0  0  0  0  0  0  0  0
   20.6670   15.4760  -13.2630 C   0  0  0  0  0  0  0  0  0  0  0  0
   20.0470   16.6780  -13.5240 C   0  0  0  0  0  0  0  0  0  0  0  0
   19.0180   16.7820  -14.4690 O   0  0  0  0  0  0  0  0  0  0  0  0
   20.4860   17.7920  -12.8090 C   0  0  0  0  0  0  0  0  0  0  0  0
   19.8560   19.0950  -13.0520 C   0  0  0  0  0  0  0  0  0  0  0  0
   18.9440   19.0920  -13.9140 O   0  0  0  0  0  0  0  0  0  0  0  0
   20.3040   20.2650  -12.3110 C   0  0  0  0  0  0  0  0  0  0  0  0
   19.6840   21.4530  -12.5800 C   0  0  0  0  0  0  0  0  0  0  0  0
   18.6430   21.6580  -13.5090 N   0  0  0  0  0  0  0  0  0  0  0  0
   18.7020   22.7920  -14.4550 C   0  0  0  0  0  0  0  0  0  0  0  0
   19.1330   22.3790  -15.8140 C   0  0  0  0  0  0  0  0  0  0  0  0
   19.7390   23.4140  -16.5930 N   0  0  0  0  0  4  0  0  0  0  0  0
   20.8380   22.9630  -17.4120 C   0  0  0  0  0  0  0  0  0  0  0  0
   21.6790   21.9180  -16.7150 C   0  0  0  0  0  0  0  0  0  0  0  0
   22.5200   22.5520  -15.8160 O   0  0  0  0  0  0  0  0  0  0  0  0
   20.1470   22.5630  -11.8450 C   0  0  0  0  0  0  0  0  0  0  0  0
   21.1450   22.4550  -10.9280 C   0  0  0  0  0  0  0  0  0  0  0  0
   21.7840   21.2340  -10.6510 C   0  0  0  0  0  0  0  0  0  0  0  0
   22.7930   21.2300   -9.6440 N   0  0  0  0  0  0  0  0  0  0  0  0
   23.3080   22.4590   -9.0680 C   0  0  0  0  0  0  0  0  0  0  0  0
   22.7160   22.8260   -7.7540 C   0  0  0  0  0  0  0  0  0  0  0  0
   22.8300   21.7310   -6.7820 N   0  0  0  0  0  0  0  0  0  0  0  0
   21.4850   21.2170   -6.5730 C   0  0  0  0  0  0  0  0  0  0  0  0
   21.4810   19.7090   -6.4980 C   0  0  0  0  0  0  0  0  0  0  0  0
   21.4640   19.1320   -7.7660 O   0  0  0  0  0  0  0  0  0  0  0  0
   21.3460   20.1440  -11.3570 C   0  0  0  0  0  0  0  0  0  0  0  0
   22.1427   14.3935  -12.1568 H   0  0  0  0  0  0  0  0  0  0  0  0
   20.3459   14.5777  -13.8108 H   0  0  0  0  0  0  0  0  0  0  0  0
   18.8610   17.6430  -14.9960 H   0  0  0  0  0  0  0  0  0  0  0  0
   17.8180   21.0850  -13.6070 H   0  0  0  0  0  0  0  0  0  0  0  0
   17.7021   23.2450  -14.5249 H   0  0  0  0  0  0  0  0  0  0  0  0
   19.4452   23.5071  -14.0724 H   0  0  0  0  0  0  0  0  0  0  0  0
   19.8602   21.5605  -15.7080 H   0  0  0  0  0  0  0  0  0  0  0  0
   18.2199   22.0826  -16.3510 H   0  0  0  0  0  0  0  0  0  0  0  0
   19.0620   23.9350  -17.1960 H   0  0  0  0  0  0  0  0  0  0  0  0
   20.1320   24.1250  -15.9280 H   0  0  0  0  0  0  0  0  0  0  0  0
   20.4344   22.5316  -18.3399 H   0  0  0  0  0  0  0  0  0  0  0  0
   21.4817   23.8303  -17.6203 H   0  0  0  0  0  0  0  0  0  0  0  0
   21.0255   21.2149  -16.1779 H   0  0  0  0  0  0  0  0  0  0  0  0
   22.2727   21.3606  -17.4544 H   0  0  0  0  0  0  0  0  0  0  0  0
   22.2230   23.5060  -15.7630 H   0  0  0  0  0  0  0  0  0  0  0  0
   19.6868   23.5469  -12.0186 H   0  0  0  0  0  0  0  0  0  0  0  0
   21.4639   23.3558  -10.3831 H   0  0  0  0  0  0  0  0  0  0  0  0
   23.1900   20.3710   -9.2890 H   0  0  0  0  0  0  0  0  0  0  0  0
   24.3941   22.3461   -8.9348 H   0  0  0  0  0  0  0  0  0  0  0  0
   23.0388   23.2655   -9.7659 H   0  0  0  0  0  0  0  0  0  0  0  0
   23.2416   23.7084   -7.3602 H   0  0  0  0  0  0  0  0  0  0  0  0
   21.6477   23.0391   -7.9067 H   0  0  0  0  0  0  0  0  0  0  0  0
   23.3640   20.9670   -7.2640 H   0  0  0  0  0  0  0  0  0  0  0  0
   21.0879   21.6239   -5.6313 H   0  0  0  0  0  0  0  0  0  0  0  0
   20.8590   21.5246   -7.4236 H   0  0  0  0  0  0  0  0  0  0  0  0
   22.3845   19.3757   -5.9663 H   0  0  0  0  0  0  0  0  0  0  0  0
   20.5721   19.3937   -5.9646 H   0  0  0  0  0  0  0  0  0  0  0  0
   20.6620   18.5410   -7.8140 H   0  0  0  0  0  0  0  0  0  0  0  0
  1  2  2  0
  2  3  1  0
  3  4  2  0
  4  5  1  0
  4  6  1  0
  6  7  2  0
  7  8  1  0
  8  9  1  0
  8 10  2  0
 10 11  1  0
 11 12  2  0
 11 13  1  0
 13 14  2  0
 14 15  1  0
 15 16  1  0
 16 17  1  0
 17 18  1  0
 18 19  1  0
 19 20  1  0
 20 21  1  0
 14 22  1  0
 22 23  2  0
 23 24  1  0
 24 25  1  0
 25 26  1  0
 26 27  1  0
 27 28  1  0
 28 29  1  0
 29 30  1  0
 30 31  1  0
 24 32  2  0
 32  2  1  0
 10  3  1  0
 32 13  1  0
  6 33  1  0
  7 34  1  0
  9 35  1  0
 15 36  1  0
 16 37  1  0
 16 38  1  0
 17 39  1  0
 17 40  1  0
 18 41  1  0
 18 42  1  0
 19 43  1  0
 19 44  1  0
 20 45  1  0
 20 46  1  0
 21 47  1  0
 22 48  1  0
 23 49  1  0
 25 50  1  0
 26 51  1  0
 26 52  1  0
 27 53  1  0
 27 54  1  0
 28 55  1  0
 29 56  1  0
 29 57  1  0
 30 58  1  0
 30 59  1  0
 31 60  1  0
M  CHG  2   5  -1  18   1
M  END
>  <meeko>  (1) 
{"is_sidechain": false}

$$$$
