
     RDKit          3D

 67 71  0  0  0  0  0  0  0  0999 V2000
   12.0220    2.9120    9.0210 O   0  0  0  0  0  0  0  0  0  0  0  0
   12.6430    1.9410    9.5020 C   0  0  0  0  0  0  0  0  0  0  0  0
   12.0940    1.0220   10.4130 N   0  0  0  0  0  0  0  0  0  0  0  0
   12.9190   -0.1430   10.3510 C   0  0  0  0  0  0  0  0  0  0  0  0
   14.2510    0.3820   10.0140 N   0  0  0  0  0  0  0  0  0  0  0  0
   15.4300   -0.2530   10.4820 C   0  0  0  0  0  0  0  0  0  0  0  0
   15.5490   -0.6500   11.7920 C   0  0  0  0  0  0  0  0  0  0  0  0
   16.6980   -1.2960   12.2600 C   0  0  0  0  0  0  0  0  0  0  0  0
   17.7170   -1.5260   11.3600 C   0  0  0  0  0  0  0  0  0  0  0  0
   17.5870   -1.1250   10.0550 C   0  0  0  0  0  0  0  0  0  0  0  0
   16.4540   -0.4950    9.6190 C   0  0  0  0  0  0  0  0  0  0  0  0
   14.0790    1.5810    9.1960 C   0  0  0  0  0  0  0  0  0  0  0  0
   14.9720    2.7180    9.6510 C   0  0  0  0  0  0  0  0  0  0  0  0
   14.7430    3.9610    8.8230 C   0  0  0  0  0  0  0  0  0  0  0  0
   14.7110    3.6750    7.4040 N   0  0  0  0  0  4  0  0  0  0  0  0
   15.4210    4.6810    6.6210 C   0  0  0  0  0  0  0  0  0  0  0  0
   16.7020    4.1110    6.0870 C   0  0  0  0  0  0  0  0  0  0  0  0
   17.2590    4.7340    4.8810 C   0  0  0  0  0  0  0  0  0  0  0  0
   18.6850    4.9690    4.7010 C   0  0  0  0  0  0  0  0  0  0  0  0
   19.5470    3.7350    4.6410 C   0  0  0  0  0  0  0  0  0  0  0  0
   20.8530    3.8740    5.0530 C   0  0  0  0  0  0  0  0  0  0  0  0
   21.7080    2.8020    5.0060 C   0  0  0  0  0  0  0  0  0  0  0  0
   21.2710    1.5800    4.5480 C   0  0  0  0  0  0  0  0  0  0  0  0
   22.1260    0.5270    4.5060 F   0  0  0  0  0  0  0  0  0  0  0  0
   19.9390    1.4650    4.1350 C   0  0  0  0  0  0  0  0  0  0  0  0
   19.0820    2.5320    4.1790 C   0  0  0  0  0  0  0  0  0  0  0  0
   19.1610    5.9730    3.7630 C   0  0  0  0  0  0  0  0  0  0  0  0
   19.5060    7.2640    4.0520 C   0  0  0  0  0  0  0  0  0  0  0  0
   19.9280    8.1010    3.0120 C   0  0  0  0  0  0  0  0  0  0  0  0
   20.0030    7.6520    1.7170 C   0  0  0  0  0  0  0  0  0  0  0  0
   20.4110    8.4440    0.6890 F   0  0  0  0  0  0  0  0  0  0  0  0
   19.6610    6.3550    1.4130 C   0  0  0  0  0  0  0  0  0  0  0  0
   19.2520    5.5530    2.4300 C   0  0  0  0  0  0  0  0  0  0  0  0
   15.1150    2.3250    7.1110 C   0  0  0  0  0  0  0  0  0  0  0  0
   14.1830    1.3380    7.7330 C   0  0  0  0  0  0  0  0  0  0  0  0
   11.2400    1.1860   11.0120 H   0  0  0  0  0  0  0  0  0  0  0  0
   12.9370   -0.6615   11.3210 H   0  0  0  0  0  0  0  0  0  0  0  0
   12.5567   -0.8800    9.6191 H   0  0  0  0  0  0  0  0  0  0  0  0
   14.7209   -0.4552   12.4894 H   0  0  0  0  0  0  0  0  0  0  0  0
   16.7857   -1.6099   13.3106 H   0  0  0  0  0  0  0  0  0  0  0  0
   18.6363   -2.0323   11.6895 H   0  0  0  0  0  0  0  0  0  0  0  0
   18.4076   -1.3132    9.3471 H   0  0  0  0  0  0  0  0  0  0  0  0
   16.3702   -0.1830    8.5675 H   0  0  0  0  0  0  0  0  0  0  0  0
   14.7545    2.9446   10.7052 H   0  0  0  0  0  0  0  0  0  0  0  0
   16.0199    2.4070    9.5280 H   0  0  0  0  0  0  0  0  0  0  0  0
   13.7822    4.4095    9.1157 H   0  0  0  0  0  0  0  0  0  0  0  0
   15.5800    4.6499    9.0097 H   0  0  0  0  0  0  0  0  0  0  0  0
   13.7180    3.7720    7.0990 H   0  0  0  0  0  0  0  0  0  0  0  0
   14.7875    5.0015    5.7808 H   0  0  0  0  0  0  0  0  0  0  0  0
   15.6518    5.5416    7.2661 H   0  0  0  0  0  0  0  0  0  0  0  0
   17.4580    4.1931    6.8818 H   0  0  0  0  0  0  0  0  0  0  0  0
   16.4527    3.0825    5.7869 H   0  0  0  0  0  0  0  0  0  0  0  0
   16.9469    4.0988    4.0389 H   0  0  0  0  0  0  0  0  0  0  0  0
   16.8733    5.7609    4.9631 H   0  0  0  0  0  0  0  0  0  0  0  0
   18.8225    5.4700    5.6706 H   0  0  0  0  0  0  0  0  0  0  0  0
   21.2119    4.8466    5.4207 H   0  0  0  0  0  0  0  0  0  0  0  0
   22.7504    2.9201    5.3368 H   0  0  0  0  0  0  0  0  0  0  0  0
   19.5721    0.4956    3.7667 H   0  0  0  0  0  0  0  0  0  0  0  0
   18.0381    2.4251    3.8491 H   0  0  0  0  0  0  0  0  0  0  0  0
   19.4529    7.6390    5.0848 H   0  0  0  0  0  0  0  0  0  0  0  0
   20.2055    9.1412    3.2376 H   0  0  0  0  0  0  0  0  0  0  0  0
   19.7169    5.9797    0.3805 H   0  0  0  0  0  0  0  0  0  0  0  0
   18.9766    4.5147    2.1933 H   0  0  0  0  0  0  0  0  0  0  0  0
   15.1173    2.1793    6.0207 H   0  0  0  0  0  0  0  0  0  0  0  0
   16.1214    2.1639    7.5247 H   0  0  0  0  0  0  0  0  0  0  0  0
   13.1876    1.4403    7.2761 H   0  0  0  0  0  0  0  0  0  0  0  0
   14.5711    0.3226    7.5646 H   0  0  0  0  0  0  0  0  0  0  0  0
  1  2  2  0
  2  3  1  0
  3  4  1  0
  4  5  1  0
  5  6  1  0
  6  7  2  0
  7  8  1  0
  8  9  2  0
  9 10  1  0
 10 11  2  0
  5 12  1  0
 12 13  1  0
 13 14  1  0
 14 15  1  0
 15 16  1  0
 16 17  1  0
 17 18  1  0
 18 19  1  0
 19 20  1  0
 20 21  2  0
 21 22  1  0
 22 23  2  0
 23 24  1  0
 23 25  1  0
 25 26  2  0
 19 27  1  0
 27 28  2  0
 28 29  1  0
 29 30  2  0
 30 31  1  0
 30 32  1  0
 32 33  2  0
 15 34  1  0
 34 35  1  0
 12  2  1  0
 26 20  1  0
 33 27  1  0
 11  6  1  0
 35 12  1  0
  3 36  1  0
  4 37  1  0
  4 38  1  0
  7 39  1  0
  8 40  1  0
  9 41  1  0
 10 42  1  0
 11 43  1  0
 13 44  1  0
 13 45  1  0
 14 46  1  0
 14 47  1  0
 15 48  1  0
 16 49  1  0
 16 50  1  0
 17 51  1  0
 17 52  1  0
 18 53  1  0
 18 54  1  0
 19 55  1  0
 21 56  1  0
 22 57  1  0
 25 58  1  0
 26 59  1  0
 28 60  1  0
 29 61  1  0
 32 62  1  0
 33 63  1  0
 34 64  1  0
 34 65  1  0
 35 66  1  0
 35 67  1  0
M  CHG  1  15   1
M  END
>  <meeko>  (1) 
{"is_sidechain": false}

$$$$
