
     RDKit          3D

 67 71  0  0  0  0  0  0  0  0999 V2000
  -11.2340    5.4800   64.6760 O   0  0  0  0  0  0  0  0  0  0  0  0
  -12.4560    5.2280   64.6390 C   0  0  0  0  0  0  0  0  0  0  0  0
  -13.2130    4.8080   65.7480 N   0  0  0  0  0  0  0  0  0  0  0  0
  -14.5780    5.0770   65.4240 C   0  0  0  0  0  0  0  0  0  0  0  0
  -14.6320    4.9350   63.9610 N   0  0  0  0  0  0  0  0  0  0  0  0
  -15.8030    4.4660   63.3120 C   0  0  0  0  0  0  0  0  0  0  0  0
  -16.2370    3.1720   63.4790 C   0  0  0  0  0  0  0  0  0  0  0  0
  -17.4010    2.7060   62.8610 C   0  0  0  0  0  0  0  0  0  0  0  0
  -18.1090    3.5890   62.0730 C   0  0  0  0  0  0  0  0  0  0  0  0
  -17.6660    4.8770   61.9150 C   0  0  0  0  0  0  0  0  0  0  0  0
  -16.5250    5.3130   62.5290 C   0  0  0  0  0  0  0  0  0  0  0  0
  -13.3350    5.3270   63.4140 C   0  0  0  0  0  0  0  0  0  0  0  0
  -12.8310    4.3450   62.3750 C   0  0  0  0  0  0  0  0  0  0  0  0
  -11.4680    4.7440   61.8570 C   0  0  0  0  0  0  0  0  0  0  0  0
  -11.4010    6.1510   61.5210 N   0  0  0  0  0  4  0  0  0  0  0  0
  -10.6670    6.3910   60.2840 C   0  0  0  0  0  0  0  0  0  0  0  0
  -11.5080    6.0070   59.1020 C   0  0  0  0  0  0  0  0  0  0  0  0
  -11.0940    4.8200   58.3450 C   0  0  0  0  0  0  0  0  0  0  0  0
   -9.7970    4.7130   57.6910 C   0  0  0  0  0  0  0  0  0  0  0  0
   -8.8390    3.7250   58.3030 C   0  0  0  0  0  0  0  0  0  0  0  0
   -9.3800    2.7870   59.1540 C   0  0  0  0  0  0  0  0  0  0  0  0
   -8.5690    1.8670   59.7700 C   0  0  0  0  0  0  0  0  0  0  0  0
   -7.2120    1.8700   59.5440 C   0  0  0  0  0  0  0  0  0  0  0  0
   -6.4200    0.9560   60.1590 F   0  0  0  0  0  0  0  0  0  0  0  0
   -6.6870    2.8340   58.6750 C   0  0  0  0  0  0  0  0  0  0  0  0
   -7.4920    3.7550   58.0590 C   0  0  0  0  0  0  0  0  0  0  0  0
   -9.6930    4.6990   56.2410 C   0  0  0  0  0  0  0  0  0  0  0  0
   -9.9250    3.6350   55.4150 C   0  0  0  0  0  0  0  0  0  0  0  0
   -9.7560    3.8010   54.0350 C   0  0  0  0  0  0  0  0  0  0  0  0
   -9.3650    5.0020   53.5000 C   0  0  0  0  0  0  0  0  0  0  0  0
   -9.1950    5.1900   52.1640 F   0  0  0  0  0  0  0  0  0  0  0  0
   -9.1290    6.0810   54.3200 C   0  0  0  0  0  0  0  0  0  0  0  0
   -9.2950    5.9080   55.6560 C   0  0  0  0  0  0  0  0  0  0  0  0
  -12.6950    6.7820   61.5560 C   0  0  0  0  0  0  0  0  0  0  0  0
  -13.2810    6.7310   62.9290 C   0  0  0  0  0  0  0  0  0  0  0  0
  -12.8230    4.3830   66.6320 H   0  0  0  0  0  0  0  0  0  0  0  0
  -15.2458    4.3518   65.9120 H   0  0  0  0  0  0  0  0  0  0  0  0
  -14.9059    6.0701   65.7650 H   0  0  0  0  0  0  0  0  0  0  0  0
  -15.6547    2.4877   64.1136 H   0  0  0  0  0  0  0  0  0  0  0  0
  -17.7411    1.6690   62.9987 H   0  0  0  0  0  0  0  0  0  0  0  0
  -19.0304    3.2596   61.5705 H   0  0  0  0  0  0  0  0  0  0  0  0
  -18.2388    5.5717   61.2831 H   0  0  0  0  0  0  0  0  0  0  0  0
  -16.1896    6.3513   62.3897 H   0  0  0  0  0  0  0  0  0  0  0  0
  -12.7630    3.3457   62.8298 H   0  0  0  0  0  0  0  0  0  0  0  0
  -13.5357    4.3413   61.5304 H   0  0  0  0  0  0  0  0  0  0  0  0
  -10.7176    4.5287   62.6319 H   0  0  0  0  0  0  0  0  0  0  0  0
  -11.2733    4.1682   60.9402 H   0  0  0  0  0  0  0  0  0  0  0  0
  -10.8160    6.6080   62.2550 H   0  0  0  0  0  0  0  0  0  0  0  0
  -10.4088    7.4581   60.2154 H   0  0  0  0  0  0  0  0  0  0  0  0
   -9.7502    5.7832   60.2859 H   0  0  0  0  0  0  0  0  0  0  0  0
  -12.5302    5.8277   59.4667 H   0  0  0  0  0  0  0  0  0  0  0  0
  -11.4066    6.8446   58.3962 H   0  0  0  0  0  0  0  0  0  0  0  0
  -11.1501    3.9762   59.0485 H   0  0  0  0  0  0  0  0  0  0  0  0
  -11.7750    4.8587   57.4820 H   0  0  0  0  0  0  0  0  0  0  0  0
   -9.4806    5.7375   57.9367 H   0  0  0  0  0  0  0  0  0  0  0  0
  -10.4640    2.7752   59.3403 H   0  0  0  0  0  0  0  0  0  0  0  0
   -9.0074    1.1215   60.4497 H   0  0  0  0  0  0  0  0  0  0  0  0
   -5.6041    2.8521   58.4827 H   0  0  0  0  0  0  0  0  0  0  0  0
   -7.0635    4.5064   57.3795 H   0  0  0  0  0  0  0  0  0  0  0  0
  -10.2391    2.6648   55.8274 H   0  0  0  0  0  0  0  0  0  0  0  0
   -9.9410    2.9488   53.3646 H   0  0  0  0  0  0  0  0  0  0  0  0
   -8.8163    7.0513   53.9069 H   0  0  0  0  0  0  0  0  0  0  0  0
   -9.1061    6.7665   56.3173 H   0  0  0  0  0  0  0  0  0  0  0  0
  -12.5906    7.8330   61.2487 H   0  0  0  0  0  0  0  0  0  0  0  0
  -13.3651    6.2434   60.8698 H   0  0  0  0  0  0  0  0  0  0  0  0
  -12.6581    7.3273   63.6120 H   0  0  0  0  0  0  0  0  0  0  0  0
  -14.3021    7.1388   62.8980 H   0  0  0  0  0  0  0  0  0  0  0  0
  1  2  2  0
  2  3  1  0
  3  4  1  0
  4  5  1  0
  5  6  1  0
  6  7  2  0
  7  8  1  0
  8  9  2  0
  9 10  1  0
 10 11  2  0
  5 12  1  0
 12 13  1  0
 13 14  1  0
 14 15  1  0
 15 16  1  0
 16 17  1  0
 17 18  1  0
 18 19  1  0
 19 20  1  0
 20 21  2  0
 21 22  1  0
 22 23  2  0
 23 24  1  0
 23 25  1  0
 25 26  2  0
 19 27  1  0
 27 28  2  0
 28 29  1  0
 29 30  2  0
 30 31  1  0
 30 32  1  0
 32 33  2  0
 15 34  1  0
 34 35  1  0
 12  2  1  0
 26 20  1  0
 33 27  1  0
 11  6  1  0
 35 12  1  0
  3 36  1  0
  4 37  1  0
  4 38  1  0
  7 39  1  0
  8 40  1  0
  9 41  1  0
 10 42  1  0
 11 43  1  0
 13 44  1  0
 13 45  1  0
 14 46  1  0
 14 47  1  0
 15 48  1  0
 16 49  1  0
 16 50  1  0
 17 51  1  0
 17 52  1  0
 18 53  1  0
 18 54  1  0
 19 55  1  0
 21 56  1  0
 22 57  1  0
 25 58  1  0
 26 59  1  0
 28 60  1  0
 29 61  1  0
 32 62  1  0
 33 63  1  0
 34 64  1  0
 34 65  1  0
 35 66  1  0
 35 67  1  0
M  CHG  1  15   1
M  END
>  <meeko>  (1) 
{"is_sidechain": false}

$$$$
