
     RDKit          3D

 50 52  0  0  0  0  0  0  0  0999 V2000
   92.4530  117.4700  123.7310 O   0  0  0  0  0  0  0  0  0  0  0  0
   93.5040  117.8550  124.3060 C   0  0  0  0  0  0  0  0  0  0  0  0
   93.5470  118.0770  125.7530 C   0  0  0  0  0  0  0  0  0  0  0  0
   92.8320  119.3290  126.2120 C   0  0  0  0  0  0  0  0  0  0  0  0
   92.5850  119.2180  127.6780 C   0  0  0  0  0  0  0  0  0  0  0  0
   91.8150  118.0330  128.0310 N   0  0  0  0  0  4  0  0  0  0  0  0
   92.3150  117.3860  129.2060 C   0  0  0  0  0  0  0  0  0  0  0  0
   92.2820  118.3020  130.3990 C   0  0  0  0  0  0  0  0  0  0  0  0
   90.8660  118.7220  130.6590 C   0  0  0  0  0  0  0  0  0  0  0  0
   90.4390  117.9740  131.7830 O   0  0  0  0  0  0  0  0  0  0  0  0
   90.7950  120.1530  131.1230 C   0  0  0  0  0  0  0  0  0  0  0  0
   89.7390  120.6270  131.8730 C   0  0  0  0  0  0  0  0  0  0  0  0
   89.6370  121.9260  132.3170 C   0  0  0  0  0  0  0  0  0  0  0  0
   90.6250  122.8080  132.0070 C   0  0  0  0  0  0  0  0  0  0  0  0
   90.5150  124.4610  132.5610 Cl  0  0  0  0  0  0  0  0  0  0  0  0
   91.6940  122.3840  131.2640 C   0  0  0  0  0  0  0  0  0  0  0  0
   91.7750  121.0750  130.8300 C   0  0  0  0  0  0  0  0  0  0  0  0
   89.9130  118.4300  129.5580 C   0  0  0  0  0  0  0  0  0  0  0  0
   90.4370  118.3700  128.1860 C   0  0  0  0  0  0  0  0  0  0  0  0
   94.6800  118.0690  123.4360 C   0  0  0  0  0  0  0  0  0  0  0  0
   95.9590  118.0370  123.9640 C   0  0  0  0  0  0  0  0  0  0  0  0
   97.0480  118.2370  123.1500 C   0  0  0  0  0  0  0  0  0  0  0  0
   96.8720  118.4680  121.8090 C   0  0  0  0  0  0  0  0  0  0  0  0
   97.9290  118.6750  120.9600 F   0  0  0  0  0  0  0  0  0  0  0  0
   95.6130  118.5020  121.2760 C   0  0  0  0  0  0  0  0  0  0  0  0
   94.5330  118.3030  122.0930 C   0  0  0  0  0  0  0  0  0  0  0  0
   93.0805  117.2126  126.2482 H   0  0  0  0  0  0  0  0  0  0  0  0
   94.6064  118.2028  126.0212 H   0  0  0  0  0  0  0  0  0  0  0  0
   93.4569  120.2105  126.0061 H   0  0  0  0  0  0  0  0  0  0  0  0
   91.8783  119.4386  125.6749 H   0  0  0  0  0  0  0  0  0  0  0  0
   93.5545  119.1746  128.1958 H   0  0  0  0  0  0  0  0  0  0  0  0
   91.9992  120.0976  127.9834 H   0  0  0  0  0  0  0  0  0  0  0  0
   91.9770  117.3580  127.2250 H   0  0  0  0  0  0  0  0  0  0  0  0
   91.6958  116.5018  129.4176 H   0  0  0  0  0  0  0  0  0  0  0  0
   93.3606  117.0983  129.0219 H   0  0  0  0  0  0  0  0  0  0  0  0
   92.6767  117.7738  131.2795 H   0  0  0  0  0  0  0  0  0  0  0  0
   92.9004  119.1898  130.2006 H   0  0  0  0  0  0  0  0  0  0  0  0
   89.9040  117.2180  131.4340 H   0  0  0  0  0  0  0  0  0  0  0  0
   88.9314  119.9263  132.1314 H   0  0  0  0  0  0  0  0  0  0  0  0
   88.7698  122.2458  132.9134 H   0  0  0  0  0  0  0  0  0  0  0  0
   92.4962  123.0926  131.0102 H   0  0  0  0  0  0  0  0  0  0  0  0
   92.6451  120.7609  130.2348 H   0  0  0  0  0  0  0  0  0  0  0  0
   89.4526  117.4548  129.7747 H   0  0  0  0  0  0  0  0  0  0  0  0
   89.2294  119.2918  129.5522 H   0  0  0  0  0  0  0  0  0  0  0  0
   89.8485  117.6187  127.6390 H   0  0  0  0  0  0  0  0  0  0  0  0
   90.3503  119.3975  127.8029 H   0  0  0  0  0  0  0  0  0  0  0  0
   96.1042  117.8509  125.0384 H   0  0  0  0  0  0  0  0  0  0  0  0
   98.0626  118.2118  123.5743 H   0  0  0  0  0  0  0  0  0  0  0  0
   95.4697  118.6874  120.2013 H   0  0  0  0  0  0  0  0  0  0  0  0
   93.5217  118.3315  121.6613 H   0  0  0  0  0  0  0  0  0  0  0  0
  1  2  2  0
  2  3  1  0
  3  4  1  0
  4  5  1  0
  5  6  1  0
  6  7  1  0
  7  8  1  0
  8  9  1  0
  9 10  1  0
  9 11  1  0
 11 12  2  0
 12 13  1  0
 13 14  2  0
 14 15  1  0
 14 16  1  0
 16 17  2  0
  9 18  1  0
 18 19  1  0
  2 20  1  0
 20 21  2  0
 21 22  1  0
 22 23  2  0
 23 24  1  0
 23 25  1  0
 25 26  2  0
 19  6  1  0
 26 20  1  0
 17 11  1  0
  3 27  1  0
  3 28  1  0
  4 29  1  0
  4 30  1  0
  5 31  1  0
  5 32  1  0
  6 33  1  0
  7 34  1  0
  7 35  1  0
  8 36  1  0
  8 37  1  0
 10 38  1  0
 12 39  1  0
 13 40  1  0
 16 41  1  0
 17 42  1  0
 18 43  1  0
 18 44  1  0
 19 45  1  0
 19 46  1  0
 21 47  1  0
 22 48  1  0
 25 49  1  0
 26 50  1  0
M  CHG  1   6   1
M  END
>  <meeko>  (1) 
{"is_sidechain": false}

$$$$
