
     RDKit          3D

 67 71  0  0  0  0  0  0  0  0999 V2000
  112.1420   98.7560  109.5000 O   0  0  0  0  0  0  0  0  0  0  0  0
  113.3430   98.5450  109.2320 C   0  0  0  0  0  0  0  0  0  0  0  0
  113.9320   98.7980  107.9810 N   0  0  0  0  0  0  0  0  0  0  0  0
  115.3400   98.8750  108.2110 C   0  0  0  0  0  0  0  0  0  0  0  0
  115.5650   97.9720  109.3500 N   0  0  0  0  0  0  0  0  0  0  0  0
  116.7780   97.2500  109.4850 C   0  0  0  0  0  0  0  0  0  0  0  0
  117.7880   97.7060  110.2980 C   0  0  0  0  0  0  0  0  0  0  0  0
  118.9800   96.9910  110.4550 C   0  0  0  0  0  0  0  0  0  0  0  0
  119.1130   95.8050  109.7650 C   0  0  0  0  0  0  0  0  0  0  0  0
  118.0990   95.3600  108.9570 C   0  0  0  0  0  0  0  0  0  0  0  0
  116.9410   96.0750  108.8180 C   0  0  0  0  0  0  0  0  0  0  0  0
  114.3700   97.9870  110.1900 C   0  0  0  0  0  0  0  0  0  0  0  0
  113.9410   96.5930  110.6030 C   0  0  0  0  0  0  0  0  0  0  0  0
  112.6770   96.6290  111.4310 C   0  0  0  0  0  0  0  0  0  0  0  0
  112.7320   97.6350  112.4700 N   0  0  0  0  0  4  0  0  0  0  0  0
  112.1710   97.1620  113.7300 C   0  0  0  0  0  0  0  0  0  0  0  0
  113.2060   96.4000  114.5040 C   0  0  0  0  0  0  0  0  0  0  0  0
  113.3750   96.7500  115.9190 C   0  0  0  0  0  0  0  0  0  0  0  0
  113.3120   98.1210  116.4060 C   0  0  0  0  0  0  0  0  0  0  0  0
  112.1730   98.4290  117.3420 C   0  0  0  0  0  0  0  0  0  0  0  0
  111.1080   97.5550  117.3250 C   0  0  0  0  0  0  0  0  0  0  0  0
  110.0210   97.7790  118.1310 C   0  0  0  0  0  0  0  0  0  0  0  0
  109.9820   98.8750  118.9630 C   0  0  0  0  0  0  0  0  0  0  0  0
  108.9010   99.0860  119.7560 F   0  0  0  0  0  0  0  0  0  0  0  0
  111.0770   99.7480  118.9610 C   0  0  0  0  0  0  0  0  0  0  0  0
  112.1630   99.5280  118.1570 C   0  0  0  0  0  0  0  0  0  0  0  0
  114.5180   98.8210  116.8180 C   0  0  0  0  0  0  0  0  0  0  0  0
  114.8120  100.1390  116.6050 C   0  0  0  0  0  0  0  0  0  0  0  0
  116.0380  100.6400  117.0590 C   0  0  0  0  0  0  0  0  0  0  0  0
  116.9430   99.8390  117.7100 C   0  0  0  0  0  0  0  0  0  0  0  0
  118.1390  100.3020  118.1620 F   0  0  0  0  0  0  0  0  0  0  0  0
  116.6580   98.5120  117.9330 C   0  0  0  0  0  0  0  0  0  0  0  0
  115.4670   98.0370  117.4870 C   0  0  0  0  0  0  0  0  0  0  0  0
  114.0460   98.2090  112.6040 C   0  0  0  0  0  0  0  0  0  0  0  0
  114.4560   98.9120  111.3510 C   0  0  0  0  0  0  0  0  0  0  0  0
  113.4130   98.9050  107.0680 H   0  0  0  0  0  0  0  0  0  0  0  0
  115.8996   98.5359  107.3268 H   0  0  0  0  0  0  0  0  0  0  0  0
  115.6805   99.9016  108.4112 H   0  0  0  0  0  0  0  0  0  0  0  0
  117.6559   98.6553  110.8378 H   0  0  0  0  0  0  0  0  0  0  0  0
  119.7842   97.3626  111.1071 H   0  0  0  0  0  0  0  0  0  0  0  0
  120.0355   95.2140  109.8631 H   0  0  0  0  0  0  0  0  0  0  0  0
  118.2184   94.4124  108.4114 H   0  0  0  0  0  0  0  0  0  0  0  0
  116.1394   95.6991  108.1653 H   0  0  0  0  0  0  0  0  0  0  0  0
  113.7605   95.9915  109.6999 H   0  0  0  0  0  0  0  0  0  0  0  0
  114.7423   96.1499  111.2126 H   0  0  0  0  0  0  0  0  0  0  0  0
  111.8263   96.8494  110.7693 H   0  0  0  0  0  0  0  0  0  0  0  0
  112.5634   95.6484  111.9163 H   0  0  0  0  0  0  0  0  0  0  0  0
  112.0890   98.4040  112.1800 H   0  0  0  0  0  0  0  0  0  0  0  0
  111.8345   98.0242  114.3244 H   0  0  0  0  0  0  0  0  0  0  0  0
  111.3204   96.4977  113.5174 H   0  0  0  0  0  0  0  0  0  0  0  0
  112.9375   95.3344  114.4561 H   0  0  0  0  0  0  0  0  0  0  0  0
  114.1641   96.6602  114.0303 H   0  0  0  0  0  0  0  0  0  0  0  0
  112.5951   96.1978  116.4639 H   0  0  0  0  0  0  0  0  0  0  0  0
  114.4346   96.5046  116.0833 H   0  0  0  0  0  0  0  0  0  0  0  0
  113.1106   98.5631  115.4191 H   0  0  0  0  0  0  0  0  0  0  0  0
  111.1295   96.6761  116.6639 H   0  0  0  0  0  0  0  0  0  0  0  0
  109.1739   97.0775  118.1124 H   0  0  0  0  0  0  0  0  0  0  0  0
  111.0642  100.6291  119.6194 H   0  0  0  0  0  0  0  0  0  0  0  0
  113.0146  100.2242  118.1661 H   0  0  0  0  0  0  0  0  0  0  0  0
  114.0975  100.7947  116.0858 H   0  0  0  0  0  0  0  0  0  0  0  0
  116.2815  101.6993  116.8902 H   0  0  0  0  0  0  0  0  0  0  0  0
  117.3713   97.8575  118.4553 H   0  0  0  0  0  0  0  0  0  0  0  0
  115.2338   96.9761  117.6608 H   0  0  0  0  0  0  0  0  0  0  0  0
  114.0402   98.9298  113.4349 H   0  0  0  0  0  0  0  0  0  0  0  0
  114.7631   97.3983  112.8005 H   0  0  0  0  0  0  0  0  0  0  0  0
  113.7894   99.7704  111.1815 H   0  0  0  0  0  0  0  0  0  0  0  0
  115.4948   99.2577  111.4576 H   0  0  0  0  0  0  0  0  0  0  0  0
  1  2  2  0
  2  3  1  0
  3  4  1  0
  4  5  1  0
  5  6  1  0
  6  7  2  0
  7  8  1  0
  8  9  2  0
  9 10  1  0
 10 11  2  0
  5 12  1  0
 12 13  1  0
 13 14  1  0
 14 15  1  0
 15 16  1  0
 16 17  1  0
 17 18  1  0
 18 19  1  0
 19 20  1  0
 20 21  2  0
 21 22  1  0
 22 23  2  0
 23 24  1  0
 23 25  1  0
 25 26  2  0
 19 27  1  0
 27 28  2  0
 28 29  1  0
 29 30  2  0
 30 31  1  0
 30 32  1  0
 32 33  2  0
 15 34  1  0
 34 35  1  0
 12  2  1  0
 26 20  1  0
 33 27  1  0
 11  6  1  0
 35 12  1  0
  3 36  1  0
  4 37  1  0
  4 38  1  0
  7 39  1  0
  8 40  1  0
  9 41  1  0
 10 42  1  0
 11 43  1  0
 13 44  1  0
 13 45  1  0
 14 46  1  0
 14 47  1  0
 15 48  1  0
 16 49  1  0
 16 50  1  0
 17 51  1  0
 17 52  1  0
 18 53  1  0
 18 54  1  0
 19 55  1  0
 21 56  1  0
 22 57  1  0
 25 58  1  0
 26 59  1  0
 28 60  1  0
 29 61  1  0
 32 62  1  0
 33 63  1  0
 34 64  1  0
 34 65  1  0
 35 66  1  0
 35 67  1  0
M  CHG  1  15   1
M  END
>  <meeko>  (1) 
{"is_sidechain": false}

$$$$
