
     RDKit          3D

 50 52  0  0  0  0  0  0  0  0999 V2000
  139.8410  140.6100  162.1030 O   0  0  0  0  0  0  0  0  0  0  0  0
  140.2780  140.8270  163.2630 C   0  0  0  0  0  0  0  0  0  0  0  0
  139.3930  141.2670  164.3440 C   0  0  0  0  0  0  0  0  0  0  0  0
  140.1140  141.6980  165.6020 C   0  0  0  0  0  0  0  0  0  0  0  0
  140.0100  140.5990  166.6040 C   0  0  0  0  0  0  0  0  0  0  0  0
  139.5280  141.0610  167.8990 N   0  0  0  0  0  4  0  0  0  0  0  0
  140.3520  140.6140  168.9800 C   0  0  0  0  0  0  0  0  0  0  0  0
  141.7660  141.1050  168.8380 C   0  0  0  0  0  0  0  0  0  0  0  0
  141.7690  142.6050  168.8330 C   0  0  0  0  0  0  0  0  0  0  0  0
  142.2350  142.9970  170.1120 O   0  0  0  0  0  0  0  0  0  0  0  0
  142.8060  143.1470  167.8850 C   0  0  0  0  0  0  0  0  0  0  0  0
  143.8010  142.3520  167.3550 C   0  0  0  0  0  0  0  0  0  0  0  0
  144.7660  142.8080  166.4860 C   0  0  0  0  0  0  0  0  0  0  0  0
  144.7530  144.1170  166.1170 C   0  0  0  0  0  0  0  0  0  0  0  0
  145.9690  144.7170  165.0140 Cl  0  0  0  0  0  0  0  0  0  0  0  0
  143.7860  144.9470  166.6160 C   0  0  0  0  0  0  0  0  0  0  0  0
  142.8270  144.4660  167.4870 C   0  0  0  0  0  0  0  0  0  0  0  0
  140.4380  143.2340  168.6470 C   0  0  0  0  0  0  0  0  0  0  0  0
  139.4160  142.4840  167.9020 C   0  0  0  0  0  0  0  0  0  0  0  0
  141.7270  140.6140  163.4630 C   0  0  0  0  0  0  0  0  0  0  0  0
  142.2090  139.3720  163.8340 C   0  0  0  0  0  0  0  0  0  0  0  0
  143.5580  139.1810  164.0190 C   0  0  0  0  0  0  0  0  0  0  0  0
  144.4330  140.2210  163.8350 C   0  0  0  0  0  0  0  0  0  0  0  0
  145.7850  140.0780  164.0100 F   0  0  0  0  0  0  0  0  0  0  0  0
  143.9670  141.4550  163.4670 C   0  0  0  0  0  0  0  0  0  0  0  0
  142.6230  141.6380  163.2860 C   0  0  0  0  0  0  0  0  0  0  0  0
  138.7993  142.1178  163.9785 H   0  0  0  0  0  0  0  0  0  0  0  0
  138.7739  140.3997  164.6171 H   0  0  0  0  0  0  0  0  0  0  0  0
  141.1722  141.8947  165.3749 H   0  0  0  0  0  0  0  0  0  0  0  0
  139.6609  142.6174  166.0011 H   0  0  0  0  0  0  0  0  0  0  0  0
  139.3140  139.8383  166.2207 H   0  0  0  0  0  0  0  0  0  0  0  0
  141.0199  140.1892  166.7529 H   0  0  0  0  0  0  0  0  0  0  0  0
  138.5870  140.5820  168.0200 H   0  0  0  0  0  0  0  0  0  0  0  0
  139.9362  140.9919  169.9257 H   0  0  0  0  0  0  0  0  0  0  0  0
  140.3670  139.5142  168.9690 H   0  0  0  0  0  0  0  0  0  0  0  0
  142.3692  140.7387  169.6818 H   0  0  0  0  0  0  0  0  0  0  0  0
  142.1942  140.7314  167.8961 H   0  0  0  0  0  0  0  0  0  0  0  0
  142.0430  142.2450  170.7260 H   0  0  0  0  0  0  0  0  0  0  0  0
  143.8246  141.2909  167.6440 H   0  0  0  0  0  0  0  0  0  0  0  0
  145.5352  142.1250  166.0963 H   0  0  0  0  0  0  0  0  0  0  0  0
  143.7720  146.0066  166.3211 H   0  0  0  0  0  0  0  0  0  0  0  0
  142.0603  145.1541  167.8727 H   0  0  0  0  0  0  0  0  0  0  0  0
  140.0296  143.4365  169.6481 H   0  0  0  0  0  0  0  0  0  0  0  0
  140.6376  144.1180  168.0236 H   0  0  0  0  0  0  0  0  0  0  0  0
  138.4371  142.7386  168.3343 H   0  0  0  0  0  0  0  0  0  0  0  0
  139.5522  142.7827  166.8521 H   0  0  0  0  0  0  0  0  0  0  0  0
  141.5112  138.5346  163.9815 H   0  0  0  0  0  0  0  0  0  0  0  0
  143.9364  138.1916  164.3153 H   0  0  0  0  0  0  0  0  0  0  0  0
  144.6663  142.2910  163.3183 H   0  0  0  0  0  0  0  0  0  0  0  0
  142.2517  142.6306  162.9913 H   0  0  0  0  0  0  0  0  0  0  0  0
  1  2  2  0
  2  3  1  0
  3  4  1  0
  4  5  1  0
  5  6  1  0
  6  7  1  0
  7  8  1  0
  8  9  1  0
  9 10  1  0
  9 11  1  0
 11 12  2  0
 12 13  1  0
 13 14  2  0
 14 15  1  0
 14 16  1  0
 16 17  2  0
  9 18  1  0
 18 19  1  0
  2 20  1  0
 20 21  2  0
 21 22  1  0
 22 23  2  0
 23 24  1  0
 23 25  1  0
 25 26  2  0
 19  6  1  0
 26 20  1  0
 17 11  1  0
  3 27  1  0
  3 28  1  0
  4 29  1  0
  4 30  1  0
  5 31  1  0
  5 32  1  0
  6 33  1  0
  7 34  1  0
  7 35  1  0
  8 36  1  0
  8 37  1  0
 10 38  1  0
 12 39  1  0
 13 40  1  0
 16 41  1  0
 17 42  1  0
 18 43  1  0
 18 44  1  0
 19 45  1  0
 19 46  1  0
 21 47  1  0
 22 48  1  0
 25 49  1  0
 26 50  1  0
M  CHG  1   6   1
M  END
>  <meeko>  (1) 
{"is_sidechain": false}

$$$$
