
     RDKit          3D

 42 45  0  0  0  0  0  0  0  0999 V2000
   87.2430  123.5220  122.8820 Cl  0  0  0  0  0  0  0  0  0  0  0  0
   87.7230  124.4860  124.2610 C   0  0  0  0  0  0  0  0  0  0  0  0
   87.1790  124.2830  125.5080 C   0  0  0  0  0  0  0  0  0  0  0  0
   87.5780  125.0180  126.6030 C   0  0  0  0  0  0  0  0  0  0  0  0
   88.5470  125.9730  126.4180 C   0  0  0  0  0  0  0  0  0  0  0  0
   89.1010  126.1800  125.1480 C   0  0  0  0  0  0  0  0  0  0  0  0
   88.7010  125.4500  124.0710 C   0  0  0  0  0  0  0  0  0  0  0  0
   89.2850  125.7040  122.7270 C   0  0  0  0  0  0  0  0  0  0  0  0
   90.0550  124.4920  122.3280 C   0  0  0  0  0  0  0  0  0  0  0  0
   90.2590  124.0640  121.0570 C   0  0  0  0  0  0  0  0  0  0  0  0
   91.0120  122.9240  120.8370 C   0  0  0  0  0  0  0  0  0  0  0  0
   91.5710  122.1990  121.8880 C   0  0  0  0  0  0  0  0  0  0  0  0
   91.3590  122.6410  123.1720 C   0  0  0  0  0  0  0  0  0  0  0  0
   90.6130  123.7690  123.3990 C   0  0  0  0  0  0  0  0  0  0  0  0
   90.3130  126.7790  122.7790 C   0  0  0  0  0  0  0  0  0  0  0  0
   91.6590  126.5390  122.6920 C   0  0  0  0  0  0  0  0  0  0  0  0
   92.5950  127.5650  122.7200 C   0  0  0  0  0  0  0  0  0  0  0  0
   92.1590  128.8630  122.8370 C   0  0  0  0  0  0  0  0  0  0  0  0
   90.8220  129.1340  122.9250 C   0  0  0  0  0  0  0  0  0  0  0  0
   89.8940  128.0800  122.8950 C   0  0  0  0  0  0  0  0  0  0  0  0
   88.2540  126.0680  121.8010 N   0  0  0  0  0  0  0  0  0  0  0  0
   88.1340  125.6170  120.5220 C   0  0  0  0  0  0  0  0  0  0  0  0
   87.0090  126.1720  119.9530 C   0  0  0  0  0  0  0  0  0  0  0  0
   86.4710  126.9430  120.8910 N   0  0  0  0  0  0  0  0  0  0  0  0
   87.2240  126.8840  122.0210 C   0  0  0  0  0  0  0  0  0  0  0  0
   86.4041  123.5126  125.6345 H   0  0  0  0  0  0  0  0  0  0  0  0
   87.1341  124.8451  127.5945 H   0  0  0  0  0  0  0  0  0  0  0  0
   88.8897  126.5780  127.2704 H   0  0  0  0  0  0  0  0  0  0  0  0
   89.8763  126.9494  125.0183 H   0  0  0  0  0  0  0  0  0  0  0  0
   89.8298  124.6180  120.2091 H   0  0  0  0  0  0  0  0  0  0  0  0
   91.1738  122.5807  119.8046 H   0  0  0  0  0  0  0  0  0  0  0  0
   92.1673  121.2951  121.6945 H   0  0  0  0  0  0  0  0  0  0  0  0
   91.7891  122.0882  124.0202 H   0  0  0  0  0  0  0  0  0  0  0  0
   90.4486  124.1130  124.4308 H   0  0  0  0  0  0  0  0  0  0  0  0
   92.0097  125.5007  122.5969 H   0  0  0  0  0  0  0  0  0  0  0  0
   93.6698  127.3417  122.6495 H   0  0  0  0  0  0  0  0  0  0  0  0
   92.8880  129.6864  122.8599 H   0  0  0  0  0  0  0  0  0  0  0  0
   90.4743  130.1734  123.0189 H   0  0  0  0  0  0  0  0  0  0  0  0
   88.8186  128.3005  122.9653 H   0  0  0  0  0  0  0  0  0  0  0  0
   88.8246  124.9211  120.0231 H   0  0  0  0  0  0  0  0  0  0  0  0
   86.6335  126.0099  118.9319 H   0  0  0  0  0  0  0  0  0  0  0  0
   87.0177  127.4198  122.9593 H   0  0  0  0  0  0  0  0  0  0  0  0
  1  2  1  0
  2  3  2  0
  3  4  1  0
  4  5  2  0
  5  6  1  0
  6  7  2  0
  7  8  1  0
  8  9  1  0
  9 10  2  0
 10 11  1  0
 11 12  2  0
 12 13  1  0
 13 14  2  0
  8 15  1  0
 15 16  2  0
 16 17  1  0
 17 18  2  0
 18 19  1  0
 19 20  2  0
  8 21  1  0
 21 22  1  0
 22 23  2  0
 23 24  1  0
 24 25  2  0
  7  2  1  0
 14  9  1  0
 20 15  1  0
 25 21  1  0
  3 26  1  0
  4 27  1  0
  5 28  1  0
  6 29  1  0
 10 30  1  0
 11 31  1  0
 12 32  1  0
 13 33  1  0
 14 34  1  0
 16 35  1  0
 17 36  1  0
 18 37  1  0
 19 38  1  0
 20 39  1  0
 22 40  1  0
 23 41  1  0
 25 42  1  0
M  END
>  <meeko>  (1) 
{"is_sidechain": false}

$$$$
