
     RDKit          3D

 67 71  0  0  0  0  0  0  0  0999 V2000
  -26.7500  -14.9420  109.2270 O   0  0  0  0  0  0  0  0  0  0  0  0
  -26.6840  -15.0590  110.4680 C   0  0  0  0  0  0  0  0  0  0  0  0
  -27.3630  -16.0420  111.2090 N   0  0  0  0  0  0  0  0  0  0  0  0
  -26.6850  -16.1340  112.4640 C   0  0  0  0  0  0  0  0  0  0  0  0
  -26.1640  -14.7770  112.6880 N   0  0  0  0  0  0  0  0  0  0  0  0
  -26.0330  -14.2490  113.9980 C   0  0  0  0  0  0  0  0  0  0  0  0
  -25.2100  -13.1790  114.2530 C   0  0  0  0  0  0  0  0  0  0  0  0
  -25.0880  -12.6370  115.5360 C   0  0  0  0  0  0  0  0  0  0  0  0
  -25.8270  -13.2130  116.5480 C   0  0  0  0  0  0  0  0  0  0  0  0
  -26.6450  -14.2800  116.2830 C   0  0  0  0  0  0  0  0  0  0  0  0
  -26.7490  -14.7940  115.0200 C   0  0  0  0  0  0  0  0  0  0  0  0
  -25.8720  -14.1770  111.3890 C   0  0  0  0  0  0  0  0  0  0  0  0
  -26.3920  -12.7570  111.2830 C   0  0  0  0  0  0  0  0  0  0  0  0
  -26.1220  -12.1730  109.9160 C   0  0  0  0  0  0  0  0  0  0  0  0
  -24.7620  -12.4100  109.4790 N   0  0  0  0  0  4  0  0  0  0  0  0
  -24.1800  -11.2450  108.8220 C   0  0  0  0  0  0  0  0  0  0  0  0
  -25.2320  -10.2000  108.5950 C   0  0  0  0  0  0  0  0  0  0  0  0
  -24.9400   -8.8430  109.0710 C   0  0  0  0  0  0  0  0  0  0  0  0
  -25.8770   -8.0710  109.8760 C   0  0  0  0  0  0  0  0  0  0  0  0
  -26.2820   -8.6970  111.1840 C   0  0  0  0  0  0  0  0  0  0  0  0
  -27.6340   -8.7700  111.4400 C   0  0  0  0  0  0  0  0  0  0  0  0
  -28.0830   -9.3050  112.6210 C   0  0  0  0  0  0  0  0  0  0  0  0
  -27.1910   -9.7730  113.5600 C   0  0  0  0  0  0  0  0  0  0  0  0
  -27.6470  -10.3000  114.7240 F   0  0  0  0  0  0  0  0  0  0  0  0
  -25.8230   -9.6860  113.2750 C   0  0  0  0  0  0  0  0  0  0  0  0
  -25.3710   -9.1520  112.0990 C   0  0  0  0  0  0  0  0  0  0  0  0
  -25.7230   -6.6320  110.0210 C   0  0  0  0  0  0  0  0  0  0  0  0
  -26.7190   -5.6970  109.9950 C   0  0  0  0  0  0  0  0  0  0  0  0
  -26.3800   -4.3450  110.1330 C   0  0  0  0  0  0  0  0  0  0  0  0
  -25.0780   -3.9450  110.2930 C   0  0  0  0  0  0  0  0  0  0  0  0
  -24.7230   -2.6390  110.4300 F   0  0  0  0  0  0  0  0  0  0  0  0
  -24.0660   -4.8770  110.3220 C   0  0  0  0  0  0  0  0  0  0  0  0
  -24.4060   -6.1840  110.1870 C   0  0  0  0  0  0  0  0  0  0  0  0
  -23.9390  -12.9520  110.5280 C   0  0  0  0  0  0  0  0  0  0  0  0
  -24.4470  -14.2830  110.9780 C   0  0  0  0  0  0  0  0  0  0  0  0
  -28.2040  -16.5880  110.8800 H   0  0  0  0  0  0  0  0  0  0  0  0
  -27.3821  -16.4222  113.2647 H   0  0  0  0  0  0  0  0  0  0  0  0
  -25.8922  -16.8966  112.4617 H   0  0  0  0  0  0  0  0  0  0  0  0
  -24.6326  -12.7377  113.4272 H   0  0  0  0  0  0  0  0  0  0  0  0
  -24.4256  -11.7809  115.7315 H   0  0  0  0  0  0  0  0  0  0  0  0
  -25.7596  -12.8147  117.5711 H   0  0  0  0  0  0  0  0  0  0  0  0
  -27.2278  -14.7306  117.0999 H   0  0  0  0  0  0  0  0  0  0  0  0
  -27.4129  -15.6501  114.8292 H   0  0  0  0  0  0  0  0  0  0  0  0
  -27.4770  -12.7585  111.4638 H   0  0  0  0  0  0  0  0  0  0  0  0
  -25.8729  -12.1409  112.0320 H   0  0  0  0  0  0  0  0  0  0  0  0
  -26.8117  -12.6318  109.1922 H   0  0  0  0  0  0  0  0  0  0  0  0
  -26.2722  -11.0851  109.9778 H   0  0  0  0  0  0  0  0  0  0  0  0
  -24.8100  -13.1290  108.7240 H   0  0  0  0  0  0  0  0  0  0  0  0
  -23.3850  -10.8284  109.4579 H   0  0  0  0  0  0  0  0  0  0  0  0
  -23.7623  -11.5511  107.8515 H   0  0  0  0  0  0  0  0  0  0  0  0
  -25.4108  -10.1397  107.5113 H   0  0  0  0  0  0  0  0  0  0  0  0
  -26.0952  -10.5310  109.1911 H   0  0  0  0  0  0  0  0  0  0  0  0
  -24.0193   -8.9216  109.6677 H   0  0  0  0  0  0  0  0  0  0  0  0
  -24.9337   -8.2737  108.1298 H   0  0  0  0  0  0  0  0  0  0  0  0
  -26.7065   -8.1464  109.1575 H   0  0  0  0  0  0  0  0  0  0  0  0
  -28.3545   -8.3988  110.6963 H   0  0  0  0  0  0  0  0  0  0  0  0
  -29.1636   -9.3605  112.8192 H   0  0  0  0  0  0  0  0  0  0  0  0
  -25.0954  -10.0551  114.0128 H   0  0  0  0  0  0  0  0  0  0  0  0
  -24.2925   -9.0893  111.8921 H   0  0  0  0  0  0  0  0  0  0  0  0
  -27.7686   -6.0007  109.8679 H   0  0  0  0  0  0  0  0  0  0  0  0
  -27.1765   -3.5866  110.1126 H   0  0  0  0  0  0  0  0  0  0  0  0
  -23.0167   -4.5729  110.4503 H   0  0  0  0  0  0  0  0  0  0  0  0
  -23.6018   -6.9342  110.2092 H   0  0  0  0  0  0  0  0  0  0  0  0
  -22.9109  -13.0676  110.1543 H   0  0  0  0  0  0  0  0  0  0  0  0
  -23.9644  -12.2612  111.3837 H   0  0  0  0  0  0  0  0  0  0  0  0
  -24.3600  -15.0035  110.1513 H   0  0  0  0  0  0  0  0  0  0  0  0
  -23.8502  -14.6230  111.8372 H   0  0  0  0  0  0  0  0  0  0  0  0
  1  2  2  0
  2  3  1  0
  3  4  1  0
  4  5  1  0
  5  6  1  0
  6  7  2  0
  7  8  1  0
  8  9  2  0
  9 10  1  0
 10 11  2  0
  5 12  1  0
 12 13  1  0
 13 14  1  0
 14 15  1  0
 15 16  1  0
 16 17  1  0
 17 18  1  0
 18 19  1  0
 19 20  1  0
 20 21  2  0
 21 22  1  0
 22 23  2  0
 23 24  1  0
 23 25  1  0
 25 26  2  0
 19 27  1  0
 27 28  2  0
 28 29  1  0
 29 30  2  0
 30 31  1  0
 30 32  1  0
 32 33  2  0
 15 34  1  0
 34 35  1  0
 12  2  1  0
 26 20  1  0
 33 27  1  0
 11  6  1  0
 35 12  1  0
  3 36  1  0
  4 37  1  0
  4 38  1  0
  7 39  1  0
  8 40  1  0
  9 41  1  0
 10 42  1  0
 11 43  1  0
 13 44  1  0
 13 45  1  0
 14 46  1  0
 14 47  1  0
 15 48  1  0
 16 49  1  0
 16 50  1  0
 17 51  1  0
 17 52  1  0
 18 53  1  0
 18 54  1  0
 19 55  1  0
 21 56  1  0
 22 57  1  0
 25 58  1  0
 26 59  1  0
 28 60  1  0
 29 61  1  0
 32 62  1  0
 33 63  1  0
 34 64  1  0
 34 65  1  0
 35 66  1  0
 35 67  1  0
M  CHG  1  15   1
M  END
>  <meeko>  (1) 
{"is_sidechain": false}

$$$$
