
     RDKit          3D

 50 52  0  0  0  0  0  0  0  0999 V2000
  -23.9250  -11.2510  113.7870 O   0  0  0  0  0  0  0  0  0  0  0  0
  -25.0950  -11.4310  114.2120 C   0  0  0  0  0  0  0  0  0  0  0  0
  -26.2010  -10.5660  113.7960 C   0  0  0  0  0  0  0  0  0  0  0  0
  -25.8880   -9.6830  112.6090 C   0  0  0  0  0  0  0  0  0  0  0  0
  -26.7530  -10.1010  111.4690 C   0  0  0  0  0  0  0  0  0  0  0  0
  -26.0940   -9.9550  110.1780 N   0  0  0  0  0  4  0  0  0  0  0  0
  -24.7180  -10.3500  110.2190 C   0  0  0  0  0  0  0  0  0  0  0  0
  -24.5680  -11.7900  110.6280 C   0  0  0  0  0  0  0  0  0  0  0  0
  -25.2790  -12.6610  109.6360 C   0  0  0  0  0  0  0  0  0  0  0  0
  -24.2670  -13.2480  108.8380 O   0  0  0  0  0  0  0  0  0  0  0  0
  -25.9380  -13.8350  110.3120 C   0  0  0  0  0  0  0  0  0  0  0  0
  -26.6950  -14.7520  109.6130 C   0  0  0  0  0  0  0  0  0  0  0  0
  -27.3130  -15.8370  110.1920 C   0  0  0  0  0  0  0  0  0  0  0  0
  -27.1810  -16.0320  111.5310 C   0  0  0  0  0  0  0  0  0  0  0  0
  -27.9570  -17.4040  112.2860 Cl  0  0  0  0  0  0  0  0  0  0  0  0
  -26.4400  -15.1490  112.2680 C   0  0  0  0  0  0  0  0  0  0  0  0
  -25.8280  -14.0670  111.6650 C   0  0  0  0  0  0  0  0  0  0  0  0
  -26.1950  -11.9440  108.7140 C   0  0  0  0  0  0  0  0  0  0  0  0
  -26.8020  -10.6880  109.1800 C   0  0  0  0  0  0  0  0  0  0  0  0
  -25.2820  -12.5590  115.1480 C   0  0  0  0  0  0  0  0  0  0  0  0
  -26.5020  -12.7660  115.7660 C   0  0  0  0  0  0  0  0  0  0  0  0
  -26.6690  -13.8160  116.6360 C   0  0  0  0  0  0  0  0  0  0  0  0
  -25.6240  -14.6670  116.8960 C   0  0  0  0  0  0  0  0  0  0  0  0
  -25.7430  -15.7260  117.7590 F   0  0  0  0  0  0  0  0  0  0  0  0
  -24.4120  -14.4730  116.2920 C   0  0  0  0  0  0  0  0  0  0  0  0
  -24.2540  -13.4240  115.4270 C   0  0  0  0  0  0  0  0  0  0  0  0
  -27.0578  -11.2042  113.5341 H   0  0  0  0  0  0  0  0  0  0  0  0
  -26.4108   -9.8944  114.6415 H   0  0  0  0  0  0  0  0  0  0  0  0
  -26.0916   -8.6325  112.8638 H   0  0  0  0  0  0  0  0  0  0  0  0
  -24.8275   -9.7820  112.3342 H   0  0  0  0  0  0  0  0  0  0  0  0
  -27.0286  -11.1571  111.6056 H   0  0  0  0  0  0  0  0  0  0  0  0
  -27.6368   -9.4461  111.4660 H   0  0  0  0  0  0  0  0  0  0  0  0
  -26.1000   -8.9080  109.9910 H   0  0  0  0  0  0  0  0  0  0  0  0
  -24.2777  -10.2147  109.2201 H   0  0  0  0  0  0  0  0  0  0  0  0
  -24.2023   -9.7251  110.9630 H   0  0  0  0  0  0  0  0  0  0  0  0
  -23.5010  -12.0561  110.6530 H   0  0  0  0  0  0  0  0  0  0  0  0
  -25.0028  -11.9374  111.6276 H   0  0  0  0  0  0  0  0  0  0  0  0
  -24.5290  -14.1920  108.6990 H   0  0  0  0  0  0  0  0  0  0  0  0
  -26.8117  -14.6076  108.5288 H   0  0  0  0  0  0  0  0  0  0  0  0
  -27.9042  -16.5351  109.5812 H   0  0  0  0  0  0  0  0  0  0  0  0
  -26.3304  -15.3021  113.3518 H   0  0  0  0  0  0  0  0  0  0  0  0
  -25.2377  -13.3730  112.2815 H   0  0  0  0  0  0  0  0  0  0  0  0
  -25.6255  -11.7130  107.8017 H   0  0  0  0  0  0  0  0  0  0  0  0
  -27.0463  -12.6288  108.5859 H   0  0  0  0  0  0  0  0  0  0  0  0
  -26.9167  -10.0309  108.3053 H   0  0  0  0  0  0  0  0  0  0  0  0
  -27.7436  -10.9890  109.6625 H   0  0  0  0  0  0  0  0  0  0  0  0
  -27.3424  -12.0868  115.5599 H   0  0  0  0  0  0  0  0  0  0  0  0
  -27.6415  -13.9749  117.1249 H   0  0  0  0  0  0  0  0  0  0  0  0
  -23.5728  -15.1532  116.4994 H   0  0  0  0  0  0  0  0  0  0  0  0
  -23.2781  -13.2705  114.9432 H   0  0  0  0  0  0  0  0  0  0  0  0
  1  2  2  0
  2  3  1  0
  3  4  1  0
  4  5  1  0
  5  6  1  0
  6  7  1  0
  7  8  1  0
  8  9  1  0
  9 10  1  0
  9 11  1  0
 11 12  2  0
 12 13  1  0
 13 14  2  0
 14 15  1  0
 14 16  1  0
 16 17  2  0
  9 18  1  0
 18 19  1  0
  2 20  1  0
 20 21  2  0
 21 22  1  0
 22 23  2  0
 23 24  1  0
 23 25  1  0
 25 26  2  0
 19  6  1  0
 26 20  1  0
 17 11  1  0
  3 27  1  0
  3 28  1  0
  4 29  1  0
  4 30  1  0
  5 31  1  0
  5 32  1  0
  6 33  1  0
  7 34  1  0
  7 35  1  0
  8 36  1  0
  8 37  1  0
 10 38  1  0
 12 39  1  0
 13 40  1  0
 16 41  1  0
 17 42  1  0
 18 43  1  0
 18 44  1  0
 19 45  1  0
 19 46  1  0
 21 47  1  0
 22 48  1  0
 25 49  1  0
 26 50  1  0
M  CHG  1   6   1
M  END
>  <meeko>  (1) 
{"is_sidechain": false}

$$$$
