@<TRIPOS>MOLECULE
MOL
   67    71     1     0     0
SMALL
bcc


@<TRIPOS>ATOM
      1 O1         -11.2340     5.4800    64.6760 o          1 MOL      -0.672500
      2 C1         -12.4560     5.2280    64.6390 c          1 MOL       0.680500
      3 N1         -13.2130     4.8080    65.7480 ns         1 MOL      -0.557900
      4 C2         -14.5780     5.0770    65.4240 c5         1 MOL       0.315200
      5 N2         -14.6320     4.9350    63.9610 nh         1 MOL      -0.601000
      6 C3         -15.8030     4.4660    63.3120 ca         1 MOL       0.043600
      7 C4         -16.2370     3.1720    63.4790 ca         1 MOL      -0.131000
      8 C5         -17.4010     2.7060    62.8610 ca         1 MOL      -0.119000
      9 C6         -18.1090     3.5890    62.0730 ca         1 MOL      -0.109000
     10 C7         -17.6660     4.8770    61.9150 ca         1 MOL      -0.119000
     11 C8         -16.5250     5.3130    62.5290 ca         1 MOL      -0.131000
     12 C9         -13.3350     5.3270    63.4140 c5         1 MOL       0.111200
     13 C10        -12.8310     4.3450    62.3750 c6         1 MOL      -0.099900
     14 C11        -11.4680     4.7440    61.8570 c6         1 MOL       0.112800
     15 N3         -11.4010     6.1510    61.5210 nx         1 MOL      -0.688400
     16 C12        -10.6670     6.3910    60.2840 c3         1 MOL       0.103800
     17 C13        -11.5080     6.0070    59.1020 c3         1 MOL      -0.098400
     18 C14        -11.0940     4.8200    58.3450 c3         1 MOL      -0.085400
     19 C15         -9.7970     4.7130    57.6910 c3         1 MOL       0.034900
     20 C16         -8.8390     3.7250    58.3030 ca         1 MOL      -0.114300
     21 C17         -9.3800     2.7870    59.1540 ca         1 MOL      -0.104750
     22 C18         -8.5690     1.8670    59.7700 ca         1 MOL      -0.161000
     23 C19         -7.2120     1.8700    59.5440 ca         1 MOL       0.141900
     24 F1          -6.4200     0.9560    60.1590 f          1 MOL      -0.124900
     25 C20         -6.6870     2.8340    58.6750 ca         1 MOL      -0.161000
     26 C21         -7.4920     3.7550    58.0590 ca         1 MOL      -0.104750
     27 C22         -9.6930     4.6990    56.2410 ca         1 MOL      -0.114300
     28 C23         -9.9250     3.6350    55.4150 ca         1 MOL      -0.104750
     29 C24         -9.7560     3.8010    54.0350 ca         1 MOL      -0.161000
     30 C25         -9.3650     5.0020    53.5000 ca         1 MOL       0.141900
     31 F2          -9.1950     5.1900    52.1640 f          1 MOL      -0.124900
     32 C26         -9.1290     6.0810    54.3200 ca         1 MOL      -0.161000
     33 C27         -9.2950     5.9080    55.6560 ca         1 MOL      -0.104750
     34 C28        -12.6950     6.7820    61.5560 c6         1 MOL       0.112800
     35 C29        -13.2810     6.7310    62.9290 c6         1 MOL      -0.099900
     36 H1         -12.8230     4.3830    66.6320 hn         1 MOL       0.363500
     37 H2         -15.2460     4.3520    65.9120 h2         1 MOL       0.083200
     38 H3         -14.9060     6.0700    65.7650 h2         1 MOL       0.083200
     39 H4         -15.6550     2.4880    64.1140 ha         1 MOL       0.140000
     40 H5         -17.7410     1.6690    62.9990 ha         1 MOL       0.149500
     41 H6         -19.0300     3.2600    61.5710 ha         1 MOL       0.152000
     42 H7         -18.2390     5.5720    61.2830 ha         1 MOL       0.149500
     43 H8         -16.1900     6.3510    62.3900 ha         1 MOL       0.140000
     44 H9         -12.7630     3.3460    62.8300 hc         1 MOL       0.095450
     45 H10        -13.5360     4.3410    61.5300 hc         1 MOL       0.095450
     46 H11        -10.7180     4.5290    62.6320 hx         1 MOL       0.102450
     47 H12        -11.2730     4.1680    60.9400 hx         1 MOL       0.102450
     48 H13        -10.8160     6.6080    62.2550 hn         1 MOL       0.483800
     49 H14        -10.4090     7.4580    60.2150 hx         1 MOL       0.106700
     50 H15         -9.7500     5.7830    60.2860 hx         1 MOL       0.106700
     51 H16        -12.5300     5.8280    59.4670 hc         1 MOL       0.070700
     52 H17        -11.4070     6.8450    58.3960 hc         1 MOL       0.070700
     53 H18        -11.1500     3.9760    59.0480 hc         1 MOL       0.060700
     54 H19        -11.7750     4.8590    57.4820 hc         1 MOL       0.060700
     55 H20         -9.4810     5.7370    57.9370 hc         1 MOL       0.061700
     56 H21        -10.4640     2.7750    59.3400 ha         1 MOL       0.136250
     57 H22         -9.0070     1.1210    60.4500 ha         1 MOL       0.159750
     58 H23         -5.6040     2.8520    58.4830 ha         1 MOL       0.159750
     59 H24         -7.0640     4.5060    57.3800 ha         1 MOL       0.136250
     60 H25        -10.2390     2.6650    55.8270 ha         1 MOL       0.136250
     61 H26         -9.9410     2.9490    53.3650 ha         1 MOL       0.159750
     62 H27         -8.8160     7.0510    53.9070 ha         1 MOL       0.159750
     63 H28         -9.1060     6.7660    56.3170 ha         1 MOL       0.136250
     64 H29        -12.5910     7.8330    61.2490 hx         1 MOL       0.102450
     65 H30        -13.3650     6.2430    60.8700 hx         1 MOL       0.102450
     66 H31        -12.6580     7.3270    63.6120 hc         1 MOL       0.095450
     67 H32        -14.3020     7.1390    62.8980 hc         1 MOL       0.095450
@<TRIPOS>BOND
     1     1     2 2   
     2     2     3 1   
     3     3     4 1   
     4     4     5 1   
     5     5     6 1   
     6     6     7 ar  
     7     7     8 ar  
     8     8     9 ar  
     9     9    10 ar  
    10    10    11 ar  
    11     5    12 1   
    12    12    13 1   
    13    13    14 1   
    14    14    15 1   
    15    15    16 1   
    16    16    17 1   
    17    17    18 1   
    18    18    19 1   
    19    19    20 1   
    20    20    21 ar  
    21    21    22 ar  
    22    22    23 ar  
    23    23    24 1   
    24    23    25 ar  
    25    25    26 ar  
    26    19    27 1   
    27    27    28 ar  
    28    28    29 ar  
    29    29    30 ar  
    30    30    31 1   
    31    30    32 ar  
    32    32    33 ar  
    33    15    34 1   
    34    34    35 1   
    35    12     2 1   
    36    26    20 ar  
    37    33    27 ar  
    38    11     6 ar  
    39    35    12 1   
    40     3    36 1   
    41     4    37 1   
    42     4    38 1   
    43     7    39 1   
    44     8    40 1   
    45     9    41 1   
    46    10    42 1   
    47    11    43 1   
    48    13    44 1   
    49    13    45 1   
    50    14    46 1   
    51    14    47 1   
    52    15    48 1   
    53    16    49 1   
    54    16    50 1   
    55    17    51 1   
    56    17    52 1   
    57    18    53 1   
    58    18    54 1   
    59    19    55 1   
    60    21    56 1   
    61    22    57 1   
    62    25    58 1   
    63    26    59 1   
    64    28    60 1   
    65    29    61 1   
    66    32    62 1   
    67    33    63 1   
    68    34    64 1   
    69    34    65 1   
    70    35    66 1   
    71    35    67 1   
@<TRIPOS>SUBSTRUCTURE
     1 MOL         1 TEMP              0 ****  ****    0 ROOT
